/*---------------------------------------------------------------------------*\
  =========                 |
  \\      /  F ield         | OpenFOAM: The Open Source CFD Toolbox
   \\    /   O peration     | Website:  https://openfoam.org
    \\  /    A nd           | Version:  6
     \\/     M anipulation  |
\*---------------------------------------------------------------------------*/
Build  : 6-e98287d00894
Exec   : chemFoam
Date   : Apr 27 2019
Time   : 15:58:45
Host   : "ArchMSI"
PID    : 9772
I/O    : uncollated
Case   : /home/jack/OpenFOAM/h2
nProcs : 1
sigFpe : Enabling floating point exception trapping (FOAM_SIGFPE).
fileModificationChecking : Monitoring run-time modified files using timeStampMaster (fileModificationSkew 10)
allowSystemOperations : Allowing user-supplied system call operations

// * * * * * * * * * * * * * * * * * * * * * * * * * * * * * * * * * * * * * //
Create time

Overriding DebugSwitches according to controlDict
    SolverPerformance 0;

Constructing single cell mesh

Reading initial conditions.

Creating base fields for time 0
Reading thermophysical properties

Selecting thermodynamics package 
{
    type            heRhoThermo;
    mixture         reactingMixture;
    transport       sutherland;
    thermo          janaf;
    energy          sensibleEnthalpy;
    equationOfState perfectGas;
    specie          specie;
}

Selecting chemistryReader chemkinReader
Selecting chemistry solver 
{
    solver          ode;
    method          standard;
}

StandardChemistryModel: Number of species = 10 and reactions = 27
Selecting ODE solver seulex
Reading/calculating face flux field phi

pressure will be held constant.
 p   = 202650 [Pa]
 T   = 1000 [K] 
 rho = 0.544501 [kg/m3]


Starting time loop

deltaT = 1e-07
Time = 1e-07

Qdot = 4.08027e+12, T = 1280.79, p = 202650, H2 = 0.0115449
ExecutionTime = 37.44 s  ClockTime = 38 s

deltaT = 8.50749e-08
Time = 1.85075e-07

Qdot = 6.26742e+11, T = 1316.54, p = 202650, H2 = 0.0115008
ExecutionTime = 37.44 s  ClockTime = 38 s

deltaT = 1.70121e-07
Time = 3.55196e-07

Qdot = 2.58246e+11, T = 1345.85, p = 202650, H2 = 0.0114264
ExecutionTime = 37.44 s  ClockTime = 38 s

deltaT = 3.40126e-07
Time = 6.95321e-07

Qdot = 1.22237e+11, T = 1373.56, p = 202650, H2 = 0.0112973
ExecutionTime = 37.44 s  ClockTime = 38 s

deltaT = 6.80252e-07
Time = 1.37557e-06

Qdot = 8.79606e+10, T = 1413.53, p = 202650, H2 = 0.0110535
ExecutionTime = 37.44 s  ClockTime = 38 s

deltaT = 1.35865e-06
Time = 2.73422e-06

Qdot = 9.16024e+10, T = 1496.43, p = 202650, H2 = 0.0105489
ExecutionTime = 37.44 s  ClockTime = 38 s

deltaT = 2.7173e-06
Time = 5.45152e-06

Qdot = 9.64389e+10, T = 1669.43, p = 202650, H2 = 0.00944884
ExecutionTime = 37.44 s  ClockTime = 38 s

deltaT = 5.4346e-06
Time = 1.08861e-05

Qdot = 8.18904e+10, T = 1959.07, p = 202650, H2 = 0.00734184
ExecutionTime = 37.44 s  ClockTime = 38 s

deltaT = 2.7173e-06
Time = 1.36034e-05

Qdot = 5.56439e+10, T = 2056.53, p = 202650, H2 = 0.0065325
ExecutionTime = 37.44 s  ClockTime = 38 s

deltaT = 5.40441e-06
Time = 1.90078e-05

Qdot = 4.34606e+10, T = 2207.38, p = 202650, H2 = 0.00526419
ExecutionTime = 37.44 s  ClockTime = 38 s

deltaT = 1.06887e-05
Time = 2.96965e-05

Qdot = 2.79201e+10, T = 2398.28, p = 202650, H2 = 0.00358068
ExecutionTime = 37.44 s  ClockTime = 38 s

deltaT = 2.0448e-05
Time = 5.01445e-05

Qdot = 1.47428e+10, T = 2590.11, p = 202650, H2 = 0.00192868
ExecutionTime = 37.44 s  ClockTime = 38 s

deltaT = 1.0224e-05
Time = 6.03685e-05

Qdot = 7.8956e+09, T = 2641.21, p = 202650, H2 = 0.00153096
ExecutionTime = 37.44 s  ClockTime = 38 s

deltaT = 1.99832e-05
Time = 8.03518e-05

Qdot = 4.88499e+09, T = 2702.75, p = 202650, H2 = 0.00112102
ExecutionTime = 37.44 s  ClockTime = 38 s

deltaT = 3.81498e-05
Time = 0.000118502

Qdot = 2.02139e+09, T = 2751.09, p = 202650, H2 = 0.000862575
ExecutionTime = 37.44 s  ClockTime = 38 s

deltaT = 7.62997e-05
Time = 0.000194801

Qdot = 3.92374e+08, T = 2769.78, p = 202650, H2 = 0.000781402
ExecutionTime = 37.44 s  ClockTime = 38 s

deltaT = 0.000152599
Time = 0.000347401

Qdot = 1.72528e+07, T = 2771.42, p = 202650, H2 = 0.000774911
ExecutionTime = 37.44 s  ClockTime = 38 s

deltaT = 0.000152599
Time = 0.0005

Qdot = -414793, T = 2771.38, p = 202650, H2 = 0.000775037
ExecutionTime = 37.44 s  ClockTime = 38 s

deltaT = 0.00025
Time = 0.00075

Qdot = 6227.06, T = 2771.38, p = 202650, H2 = 0.000775034
ExecutionTime = 37.44 s  ClockTime = 38 s

deltaT = 0.00025
Time = 0.001

Qdot = -254.971, T = 2771.38, p = 202650, H2 = 0.000775034
ExecutionTime = 37.45 s  ClockTime = 38 s

deltaT = 0.0005
Time = 0.0015

Qdot = 5.19727, T = 2771.38, p = 202650, H2 = 0.000775034
ExecutionTime = 37.45 s  ClockTime = 38 s

deltaT = 0.0005
Time = 0.002

Qdot = -0.183776, T = 2771.38, p = 202650, H2 = 0.000775034
ExecutionTime = 37.45 s  ClockTime = 38 s

deltaT = 0.0005
Time = 0.0025

Qdot = 0.00650217, T = 2771.38, p = 202650, H2 = 0.000775034
ExecutionTime = 37.45 s  ClockTime = 38 s

deltaT = 0.0005
Time = 0.003

Qdot = -0.000226281, T = 2771.38, p = 202650, H2 = 0.000775034
ExecutionTime = 37.45 s  ClockTime = 38 s

deltaT = 0.0005
Time = 0.0035

Qdot = 5.18823e-06, T = 2771.38, p = 202650, H2 = 0.000775034
ExecutionTime = 37.45 s  ClockTime = 38 s

deltaT = 0.0005
Time = 0.004

Qdot = 8.89944e-07, T = 2771.38, p = 202650, H2 = 0.000775034
ExecutionTime = 37.45 s  ClockTime = 38 s

deltaT = 0.0005
Time = 0.0045

Qdot = 7.46051e-07, T = 2771.38, p = 202650, H2 = 0.000775034
ExecutionTime = 37.45 s  ClockTime = 38 s

deltaT = 0.0005
Time = 0.005

Qdot = 1.53358e-08, T = 2771.38, p = 202650, H2 = 0.000775034
ExecutionTime = 37.45 s  ClockTime = 38 s

deltaT = 0.0005
Time = 0.0055

Qdot = -7.11764e-07, T = 2771.38, p = 202650, H2 = 0.000775034
ExecutionTime = 37.45 s  ClockTime = 38 s

deltaT = 0.0005
Time = 0.006

Qdot = 1.80689e-06, T = 2771.38, p = 202650, H2 = 0.000775034
ExecutionTime = 37.45 s  ClockTime = 38 s

deltaT = 0.0005
Time = 0.0065

Qdot = -2.78734e-06, T = 2771.38, p = 202650, H2 = 0.000775034
ExecutionTime = 37.46 s  ClockTime = 38 s

deltaT = 0.0005
Time = 0.007

Qdot = 3.45893e-06, T = 2771.38, p = 202650, H2 = 0.000775034
ExecutionTime = 37.46 s  ClockTime = 38 s

deltaT = 0.0005
Time = 0.0075

Qdot = -3.2018e-06, T = 2771.38, p = 202650, H2 = 0.000775034
ExecutionTime = 37.46 s  ClockTime = 38 s

deltaT = 0.0005
Time = 0.008

Qdot = 1.59026e-06, T = 2771.38, p = 202650, H2 = 0.000775034
ExecutionTime = 37.46 s  ClockTime = 38 s

deltaT = 0.0005
Time = 0.0085

Qdot = -3.84136e-08, T = 2771.38, p = 202650, H2 = 0.000775034
ExecutionTime = 37.46 s  ClockTime = 38 s

deltaT = 0.0005
Time = 0.009

Qdot = 4.79665e-08, T = 2771.38, p = 202650, H2 = 0.000775034
ExecutionTime = 37.46 s  ClockTime = 38 s

deltaT = 0.0005
Time = 0.0095

Qdot = 3.0691e-08, T = 2771.38, p = 202650, H2 = 0.000775034
ExecutionTime = 37.47 s  ClockTime = 38 s

deltaT = 0.0005
Time = 0.01

Qdot = 3.64842e-08, T = 2771.38, p = 202650, H2 = 0.000775034
ExecutionTime = 37.48 s  ClockTime = 38 s

deltaT = 0.0005
Time = 0.0105

Qdot = 2.68467e-08, T = 2771.38, p = 202650, H2 = 0.000775034
ExecutionTime = 37.48 s  ClockTime = 38 s

deltaT = 0.0005
Time = 0.011

Qdot = -1.34223e-08, T = 2771.38, p = 202650, H2 = 0.000775034
ExecutionTime = 37.48 s  ClockTime = 38 s

deltaT = 0.0005
Time = 0.0115

Qdot = -2.49173e-08, T = 2771.38, p = 202650, H2 = 0.000775034
ExecutionTime = 37.48 s  ClockTime = 38 s

deltaT = 0.0005
Time = 0.012

Qdot = 4.41254e-08, T = 2771.38, p = 202650, H2 = 0.000775034
ExecutionTime = 37.48 s  ClockTime = 38 s

deltaT = 0.0005
Time = 0.0125

Qdot = -2.04646e-12, T = 2771.38, p = 202650, H2 = 0.000775034
ExecutionTime = 37.48 s  ClockTime = 38 s

deltaT = 0.0005
Time = 0.013

Qdot = 2.04646e-12, T = 2771.38, p = 202650, H2 = 0.000775034
ExecutionTime = 37.48 s  ClockTime = 38 s

deltaT = 0.0005
Time = 0.0135

Qdot = -2.04646e-12, T = 2771.38, p = 202650, H2 = 0.000775034
ExecutionTime = 37.48 s  ClockTime = 38 s

deltaT = 0.0005
Time = 0.014

Qdot = -2.49132e-08, T = 2771.38, p = 202650, H2 = 0.000775034
ExecutionTime = 37.48 s  ClockTime = 38 s

deltaT = 0.0005
Time = 0.0145

Qdot = 4.41213e-08, T = 2771.38, p = 202650, H2 = 0.000775034
ExecutionTime = 37.48 s  ClockTime = 38 s

deltaT = 0.0005
Time = 0.015

Qdot = 2.04646e-12, T = 2771.38, p = 202650, H2 = 0.000775034
ExecutionTime = 37.48 s  ClockTime = 38 s

deltaT = 0.0005
Time = 0.0155

Qdot = -2.49173e-08, T = 2771.38, p = 202650, H2 = 0.000775034
ExecutionTime = 37.48 s  ClockTime = 38 s

deltaT = 0.0005
Time = 0.016

Qdot = 4.41254e-08, T = 2771.38, p = 202650, H2 = 0.000775034
ExecutionTime = 37.48 s  ClockTime = 38 s

deltaT = 0.0005
Time = 0.0165

Qdot = -2.04646e-12, T = 2771.38, p = 202650, H2 = 0.000775034
ExecutionTime = 37.49 s  ClockTime = 38 s

deltaT = 0.0005
Time = 0.017

Qdot = 2.04646e-12, T = 2771.38, p = 202650, H2 = 0.000775034
ExecutionTime = 37.49 s  ClockTime = 38 s

deltaT = 0.0005
Time = 0.0175

Qdot = -2.04646e-12, T = 2771.38, p = 202650, H2 = 0.000775034
ExecutionTime = 37.49 s  ClockTime = 38 s

deltaT = 0.0005
Time = 0.018

Qdot = 2.04646e-12, T = 2771.38, p = 202650, H2 = 0.000775034
ExecutionTime = 37.49 s  ClockTime = 38 s

deltaT = 0.0005
Time = 0.0185

Qdot = -2.04646e-12, T = 2771.38, p = 202650, H2 = 0.000775034
ExecutionTime = 37.5 s  ClockTime = 38 s

deltaT = 0.0005
Time = 0.019

Qdot = 7.0772e-12, T = 2771.38, p = 202650, H2 = 0.000775034
ExecutionTime = 37.5 s  ClockTime = 38 s

deltaT = 0.0005
Time = 0.0195

Qdot = -7.0772e-12, T = 2771.38, p = 202650, H2 = 0.000775034
ExecutionTime = 37.5 s  ClockTime = 38 s

deltaT = 0.0005
Time = 0.02

Qdot = 2.04646e-12, T = 2771.38, p = 202650, H2 = 0.000775034
ExecutionTime = 37.5 s  ClockTime = 38 s

deltaT = 0.0005
Time = 0.0205

Qdot = -2.04646e-12, T = 2771.38, p = 202650, H2 = 0.000775034
ExecutionTime = 37.5 s  ClockTime = 38 s

deltaT = 0.0005
Time = 0.021

Qdot = 2.04646e-12, T = 2771.38, p = 202650, H2 = 0.000775034
ExecutionTime = 37.5 s  ClockTime = 38 s

deltaT = 0.0005
Time = 0.0215

Qdot = -2.04646e-12, T = 2771.38, p = 202650, H2 = 0.000775034
ExecutionTime = 37.51 s  ClockTime = 38 s

deltaT = 0.0005
Time = 0.022

Qdot = 2.04646e-12, T = 2771.38, p = 202650, H2 = 0.000775034
ExecutionTime = 37.51 s  ClockTime = 38 s

deltaT = 0.0005
Time = 0.0225

Qdot = 2.98429e-12, T = 2771.38, p = 202650, H2 = 0.000775034
ExecutionTime = 37.51 s  ClockTime = 38 s

deltaT = 0.0005
Time = 0.023

Qdot = -2.98429e-12, T = 2771.38, p = 202650, H2 = 0.000775034
ExecutionTime = 37.51 s  ClockTime = 38 s

deltaT = 0.0005
Time = 0.0235

Qdot = -2.04646e-12, T = 2771.38, p = 202650, H2 = 0.000775034
ExecutionTime = 37.51 s  ClockTime = 38 s

deltaT = 0.0005
Time = 0.024

Qdot = 2.04646e-12, T = 2771.38, p = 202650, H2 = 0.000775034
ExecutionTime = 37.51 s  ClockTime = 38 s

deltaT = 0.0005
Time = 0.0245

Qdot = -2.04646e-12, T = 2771.38, p = 202650, H2 = 0.000775034
ExecutionTime = 37.51 s  ClockTime = 38 s

deltaT = 0.0005
Time = 0.025

Qdot = 2.04646e-12, T = 2771.38, p = 202650, H2 = 0.000775034
ExecutionTime = 37.51 s  ClockTime = 38 s

deltaT = 0.0005
Time = 0.0255

Qdot = -2.04646e-12, T = 2771.38, p = 202650, H2 = 0.000775034
ExecutionTime = 37.51 s  ClockTime = 38 s

deltaT = 0.0005
Time = 0.026

Qdot = 2.04646e-12, T = 2771.38, p = 202650, H2 = 0.000775034
ExecutionTime = 37.51 s  ClockTime = 38 s

deltaT = 0.0005
Time = 0.0265

Qdot = -2.04646e-12, T = 2771.38, p = 202650, H2 = 0.000775034
ExecutionTime = 37.52 s  ClockTime = 38 s

deltaT = 0.0005
Time = 0.027

Qdot = 7.0772e-12, T = 2771.38, p = 202650, H2 = 0.000775034
ExecutionTime = 37.52 s  ClockTime = 38 s

deltaT = 0.0005
Time = 0.0275

Qdot = -7.0772e-12, T = 2771.38, p = 202650, H2 = 0.000775034
ExecutionTime = 37.52 s  ClockTime = 38 s

deltaT = 0.0005
Time = 0.028

Qdot = 2.04646e-12, T = 2771.38, p = 202650, H2 = 0.000775034
ExecutionTime = 37.52 s  ClockTime = 38 s

deltaT = 0.0005
Time = 0.0285

Qdot = -2.04646e-12, T = 2771.38, p = 202650, H2 = 0.000775034
ExecutionTime = 37.52 s  ClockTime = 38 s

deltaT = 0.0005
Time = 0.029

Qdot = 2.04646e-12, T = 2771.38, p = 202650, H2 = 0.000775034
ExecutionTime = 37.52 s  ClockTime = 38 s

deltaT = 0.0005
Time = 0.0295

Qdot = -2.04646e-12, T = 2771.38, p = 202650, H2 = 0.000775034
ExecutionTime = 37.52 s  ClockTime = 38 s

deltaT = 0.0005
Time = 0.03

Qdot = 2.04646e-12, T = 2771.38, p = 202650, H2 = 0.000775034
ExecutionTime = 37.52 s  ClockTime = 38 s

deltaT = 0.0005
Time = 0.0305

Qdot = 2.98429e-12, T = 2771.38, p = 202650, H2 = 0.000775034
ExecutionTime = 37.53 s  ClockTime = 38 s

deltaT = 0.0005
Time = 0.031

Qdot = -2.98429e-12, T = 2771.38, p = 202650, H2 = 0.000775034
ExecutionTime = 37.54 s  ClockTime = 38 s

deltaT = 0.0005
Time = 0.0315

Qdot = -2.04646e-12, T = 2771.38, p = 202650, H2 = 0.000775034
ExecutionTime = 37.54 s  ClockTime = 38 s

deltaT = 0.0005
Time = 0.032

Qdot = 2.04646e-12, T = 2771.38, p = 202650, H2 = 0.000775034
ExecutionTime = 37.54 s  ClockTime = 38 s

deltaT = 0.0005
Time = 0.0325

Qdot = -2.04646e-12, T = 2771.38, p = 202650, H2 = 0.000775034
ExecutionTime = 37.54 s  ClockTime = 38 s

deltaT = 0.0005
Time = 0.033

Qdot = 2.04646e-12, T = 2771.38, p = 202650, H2 = 0.000775034
ExecutionTime = 37.54 s  ClockTime = 38 s

deltaT = 0.0005
Time = 0.0335

Qdot = -2.04646e-12, T = 2771.38, p = 202650, H2 = 0.000775034
ExecutionTime = 37.54 s  ClockTime = 38 s

deltaT = 0.0005
Time = 0.034

Qdot = 2.04646e-12, T = 2771.38, p = 202650, H2 = 0.000775034
ExecutionTime = 37.54 s  ClockTime = 38 s

deltaT = 0.0005
Time = 0.0345

Qdot = -2.04646e-12, T = 2771.38, p = 202650, H2 = 0.000775034
ExecutionTime = 37.55 s  ClockTime = 38 s

deltaT = 0.0005
Time = 0.035

Qdot = 2.04646e-12, T = 2771.38, p = 202650, H2 = 0.000775034
ExecutionTime = 37.55 s  ClockTime = 38 s

deltaT = 0.0005
Time = 0.0355

Qdot = -2.04646e-12, T = 2771.38, p = 202650, H2 = 0.000775034
ExecutionTime = 37.55 s  ClockTime = 38 s

deltaT = 0.0005
Time = 0.036

Qdot = 2.04646e-12, T = 2771.38, p = 202650, H2 = 0.000775034
ExecutionTime = 37.55 s  ClockTime = 38 s

deltaT = 0.0005
Time = 0.0365

Qdot = -2.04646e-12, T = 2771.38, p = 202650, H2 = 0.000775034
ExecutionTime = 37.55 s  ClockTime = 38 s

deltaT = 0.0005
Time = 0.037

Qdot = 2.04646e-12, T = 2771.38, p = 202650, H2 = 0.000775034
ExecutionTime = 37.55 s  ClockTime = 38 s

deltaT = 0.0005
Time = 0.0375

Qdot = -2.04646e-12, T = 2771.38, p = 202650, H2 = 0.000775034
ExecutionTime = 37.55 s  ClockTime = 38 s

deltaT = 0.0005
Time = 0.038

Qdot = 2.04646e-12, T = 2771.38, p = 202650, H2 = 0.000775034
ExecutionTime = 37.55 s  ClockTime = 38 s

deltaT = 0.0005
Time = 0.0385

Qdot = -2.04646e-12, T = 2771.38, p = 202650, H2 = 0.000775034
ExecutionTime = 37.55 s  ClockTime = 38 s

deltaT = 0.0005
Time = 0.039

Qdot = 2.04646e-12, T = 2771.38, p = 202650, H2 = 0.000775034
ExecutionTime = 37.55 s  ClockTime = 38 s

deltaT = 0.0005
Time = 0.0395

Qdot = -2.04646e-12, T = 2771.38, p = 202650, H2 = 0.000775034
ExecutionTime = 37.56 s  ClockTime = 38 s

deltaT = 0.0005
Time = 0.04

Qdot = 2.04646e-12, T = 2771.38, p = 202650, H2 = 0.000775034
ExecutionTime = 37.56 s  ClockTime = 38 s

deltaT = 0.0005
Time = 0.0405

Qdot = -2.04646e-12, T = 2771.38, p = 202650, H2 = 0.000775034
ExecutionTime = 37.56 s  ClockTime = 38 s

deltaT = 0.0005
Time = 0.041

Qdot = 2.04646e-12, T = 2771.38, p = 202650, H2 = 0.000775034
ExecutionTime = 37.56 s  ClockTime = 38 s

deltaT = 0.0005
Time = 0.0415

Qdot = -2.04646e-12, T = 2771.38, p = 202650, H2 = 0.000775034
ExecutionTime = 37.56 s  ClockTime = 38 s

deltaT = 0.0005
Time = 0.042

Qdot = 2.04646e-12, T = 2771.38, p = 202650, H2 = 0.000775034
ExecutionTime = 37.56 s  ClockTime = 38 s

deltaT = 0.0005
Time = 0.0425

Qdot = -2.04646e-12, T = 2771.38, p = 202650, H2 = 0.000775034
ExecutionTime = 37.57 s  ClockTime = 38 s

deltaT = 0.0005
Time = 0.043

Qdot = 2.04646e-12, T = 2771.38, p = 202650, H2 = 0.000775034
ExecutionTime = 37.57 s  ClockTime = 38 s

deltaT = 0.0005
Time = 0.0435

Qdot = -2.04646e-12, T = 2771.38, p = 202650, H2 = 0.000775034
ExecutionTime = 37.57 s  ClockTime = 38 s

deltaT = 0.0005
Time = 0.044

Qdot = 2.04646e-12, T = 2771.38, p = 202650, H2 = 0.000775034
ExecutionTime = 37.57 s  ClockTime = 38 s

deltaT = 0.0005
Time = 0.0445

Qdot = -2.04646e-12, T = 2771.38, p = 202650, H2 = 0.000775034
ExecutionTime = 37.57 s  ClockTime = 38 s

deltaT = 0.0005
Time = 0.045

Qdot = 2.04646e-12, T = 2771.38, p = 202650, H2 = 0.000775034
ExecutionTime = 37.57 s  ClockTime = 38 s

deltaT = 0.0005
Time = 0.0455

Qdot = -2.04646e-12, T = 2771.38, p = 202650, H2 = 0.000775034
ExecutionTime = 37.57 s  ClockTime = 38 s

deltaT = 0.0005
Time = 0.046

Qdot = 2.04646e-12, T = 2771.38, p = 202650, H2 = 0.000775034
ExecutionTime = 37.57 s  ClockTime = 38 s

deltaT = 0.0005
Time = 0.0465

Qdot = -2.04646e-12, T = 2771.38, p = 202650, H2 = 0.000775034
ExecutionTime = 37.57 s  ClockTime = 38 s

deltaT = 0.0005
Time = 0.047

Qdot = 2.04646e-12, T = 2771.38, p = 202650, H2 = 0.000775034
ExecutionTime = 37.58 s  ClockTime = 38 s

deltaT = 0.0005
Time = 0.0475

Qdot = -2.04646e-12, T = 2771.38, p = 202650, H2 = 0.000775034
ExecutionTime = 37.59 s  ClockTime = 38 s

deltaT = 0.0005
Time = 0.048

Qdot = 2.04646e-12, T = 2771.38, p = 202650, H2 = 0.000775034
ExecutionTime = 37.59 s  ClockTime = 38 s

deltaT = 0.0005
Time = 0.0485

Qdot = -2.04646e-12, T = 2771.38, p = 202650, H2 = 0.000775034
ExecutionTime = 37.59 s  ClockTime = 38 s

deltaT = 0.0005
Time = 0.049

Qdot = 2.04646e-12, T = 2771.38, p = 202650, H2 = 0.000775034
ExecutionTime = 37.59 s  ClockTime = 38 s

deltaT = 0.0005
Time = 0.0495

Qdot = -2.04646e-12, T = 2771.38, p = 202650, H2 = 0.000775034
ExecutionTime = 37.59 s  ClockTime = 38 s

deltaT = 0.0005
Time = 0.05

Qdot = 2.04646e-12, T = 2771.38, p = 202650, H2 = 0.000775034
ExecutionTime = 37.59 s  ClockTime = 38 s

deltaT = 0.0005
Time = 0.0505

Qdot = -2.04646e-12, T = 2771.38, p = 202650, H2 = 0.000775034
ExecutionTime = 37.59 s  ClockTime = 38 s

deltaT = 0.0005
Time = 0.051

Qdot = 2.04646e-12, T = 2771.38, p = 202650, H2 = 0.000775034
ExecutionTime = 37.59 s  ClockTime = 38 s

deltaT = 0.0005
Time = 0.0515

Qdot = -2.04646e-12, T = 2771.38, p = 202650, H2 = 0.000775034
ExecutionTime = 37.59 s  ClockTime = 38 s

deltaT = 0.0005
Time = 0.052

Qdot = 2.04646e-12, T = 2771.38, p = 202650, H2 = 0.000775034
ExecutionTime = 37.59 s  ClockTime = 38 s

deltaT = 0.0005
Time = 0.0525

Qdot = -2.04646e-12, T = 2771.38, p = 202650, H2 = 0.000775034
ExecutionTime = 37.6 s  ClockTime = 38 s

deltaT = 0.0005
Time = 0.053

Qdot = 2.04646e-12, T = 2771.38, p = 202650, H2 = 0.000775034
ExecutionTime = 37.6 s  ClockTime = 38 s

deltaT = 0.0005
Time = 0.0535

Qdot = -2.04646e-12, T = 2771.38, p = 202650, H2 = 0.000775034
ExecutionTime = 37.6 s  ClockTime = 38 s

deltaT = 0.0005
Time = 0.054

Qdot = 2.04646e-12, T = 2771.38, p = 202650, H2 = 0.000775034
ExecutionTime = 37.6 s  ClockTime = 38 s

deltaT = 0.0005
Time = 0.0545

Qdot = -2.04646e-12, T = 2771.38, p = 202650, H2 = 0.000775034
ExecutionTime = 37.6 s  ClockTime = 38 s

deltaT = 0.0005
Time = 0.055

Qdot = 2.04646e-12, T = 2771.38, p = 202650, H2 = 0.000775034
ExecutionTime = 37.6 s  ClockTime = 38 s

deltaT = 0.0005
Time = 0.0555

Qdot = -2.04646e-12, T = 2771.38, p = 202650, H2 = 0.000775034
ExecutionTime = 37.6 s  ClockTime = 38 s

deltaT = 0.0005
Time = 0.056

Qdot = 2.04646e-12, T = 2771.38, p = 202650, H2 = 0.000775034
ExecutionTime = 37.61 s  ClockTime = 38 s

deltaT = 0.0005
Time = 0.0565

Qdot = -2.04646e-12, T = 2771.38, p = 202650, H2 = 0.000775034
ExecutionTime = 37.61 s  ClockTime = 38 s

deltaT = 0.0005
Time = 0.057

Qdot = 2.04646e-12, T = 2771.38, p = 202650, H2 = 0.000775034
ExecutionTime = 37.61 s  ClockTime = 38 s

deltaT = 0.0005
Time = 0.0575

Qdot = -2.04646e-12, T = 2771.38, p = 202650, H2 = 0.000775034
ExecutionTime = 37.61 s  ClockTime = 38 s

deltaT = 0.0005
Time = 0.058

Qdot = 2.04646e-12, T = 2771.38, p = 202650, H2 = 0.000775034
ExecutionTime = 37.61 s  ClockTime = 38 s

deltaT = 0.0005
Time = 0.0585

Qdot = -2.04646e-12, T = 2771.38, p = 202650, H2 = 0.000775034
ExecutionTime = 37.61 s  ClockTime = 38 s

deltaT = 0.0005
Time = 0.059

Qdot = 2.04646e-12, T = 2771.38, p = 202650, H2 = 0.000775034
ExecutionTime = 37.61 s  ClockTime = 38 s

deltaT = 0.0005
Time = 0.0595

Qdot = -2.04646e-12, T = 2771.38, p = 202650, H2 = 0.000775034
ExecutionTime = 37.61 s  ClockTime = 38 s

deltaT = 0.0005
Time = 0.06

Qdot = 2.04646e-12, T = 2771.38, p = 202650, H2 = 0.000775034
ExecutionTime = 37.61 s  ClockTime = 38 s

deltaT = 0.0005
Time = 0.0605

Qdot = -2.04646e-12, T = 2771.38, p = 202650, H2 = 0.000775034
ExecutionTime = 37.62 s  ClockTime = 38 s

deltaT = 0.0005
Time = 0.061

Qdot = 2.04646e-12, T = 2771.38, p = 202650, H2 = 0.000775034
ExecutionTime = 37.63 s  ClockTime = 38 s

deltaT = 0.0005
Time = 0.0615

Qdot = -2.04646e-12, T = 2771.38, p = 202650, H2 = 0.000775034
ExecutionTime = 37.63 s  ClockTime = 38 s

deltaT = 0.0005
Time = 0.062

Qdot = 2.04646e-12, T = 2771.38, p = 202650, H2 = 0.000775034
ExecutionTime = 37.63 s  ClockTime = 38 s

deltaT = 0.0005
Time = 0.0625

Qdot = -2.04646e-12, T = 2771.38, p = 202650, H2 = 0.000775034
ExecutionTime = 37.63 s  ClockTime = 38 s

deltaT = 0.0005
Time = 0.063

Qdot = 2.04646e-12, T = 2771.38, p = 202650, H2 = 0.000775034
ExecutionTime = 37.63 s  ClockTime = 38 s

deltaT = 0.0005
Time = 0.0635

Qdot = -2.04646e-12, T = 2771.38, p = 202650, H2 = 0.000775034
ExecutionTime = 37.63 s  ClockTime = 38 s

deltaT = 0.0005
Time = 0.064

Qdot = 2.04646e-12, T = 2771.38, p = 202650, H2 = 0.000775034
ExecutionTime = 37.63 s  ClockTime = 38 s

deltaT = 0.0005
Time = 0.0645

Qdot = -2.04646e-12, T = 2771.38, p = 202650, H2 = 0.000775034
ExecutionTime = 37.63 s  ClockTime = 38 s

deltaT = 0.0005
Time = 0.065

Qdot = 2.04646e-12, T = 2771.38, p = 202650, H2 = 0.000775034
ExecutionTime = 37.64 s  ClockTime = 38 s

deltaT = 0.0005
Time = 0.0655

Qdot = -2.04646e-12, T = 2771.38, p = 202650, H2 = 0.000775034
ExecutionTime = 37.64 s  ClockTime = 38 s

deltaT = 0.0005
Time = 0.066

Qdot = 2.04646e-12, T = 2771.38, p = 202650, H2 = 0.000775034
ExecutionTime = 37.64 s  ClockTime = 38 s

deltaT = 0.0005
Time = 0.0665

Qdot = -2.04646e-12, T = 2771.38, p = 202650, H2 = 0.000775034
ExecutionTime = 37.64 s  ClockTime = 38 s

deltaT = 0.0005
Time = 0.067

Qdot = 2.04646e-12, T = 2771.38, p = 202650, H2 = 0.000775034
ExecutionTime = 37.64 s  ClockTime = 38 s

deltaT = 0.0005
Time = 0.0675

Qdot = -2.04646e-12, T = 2771.38, p = 202650, H2 = 0.000775034
ExecutionTime = 37.64 s  ClockTime = 38 s

deltaT = 0.0005
Time = 0.068

Qdot = 2.04646e-12, T = 2771.38, p = 202650, H2 = 0.000775034
ExecutionTime = 37.64 s  ClockTime = 38 s

deltaT = 0.0005
Time = 0.0685

Qdot = -2.04646e-12, T = 2771.38, p = 202650, H2 = 0.000775034
ExecutionTime = 37.64 s  ClockTime = 38 s

deltaT = 0.0005
Time = 0.069

Qdot = 2.04646e-12, T = 2771.38, p = 202650, H2 = 0.000775034
ExecutionTime = 37.64 s  ClockTime = 38 s

deltaT = 0.0005
Time = 0.0695

Qdot = -2.04646e-12, T = 2771.38, p = 202650, H2 = 0.000775034
ExecutionTime = 37.64 s  ClockTime = 38 s

deltaT = 0.0005
Time = 0.07

Qdot = 2.04646e-12, T = 2771.38, p = 202650, H2 = 0.000775034
ExecutionTime = 37.64 s  ClockTime = 38 s

deltaT = 0.0005
Time = 0.0705

Qdot = -2.04646e-12, T = 2771.38, p = 202650, H2 = 0.000775034
ExecutionTime = 37.64 s  ClockTime = 38 s

deltaT = 0.0005
Time = 0.071

Qdot = 2.04646e-12, T = 2771.38, p = 202650, H2 = 0.000775034
ExecutionTime = 37.64 s  ClockTime = 38 s

deltaT = 0.0005
Time = 0.0715

Qdot = -2.04646e-12, T = 2771.38, p = 202650, H2 = 0.000775034
ExecutionTime = 37.65 s  ClockTime = 38 s

deltaT = 0.0005
Time = 0.072

Qdot = 2.04646e-12, T = 2771.38, p = 202650, H2 = 0.000775034
ExecutionTime = 37.65 s  ClockTime = 38 s

deltaT = 0.0005
Time = 0.0725

Qdot = -2.04646e-12, T = 2771.38, p = 202650, H2 = 0.000775034
ExecutionTime = 37.65 s  ClockTime = 38 s

deltaT = 0.0005
Time = 0.073

Qdot = 1.10862e-12, T = 2771.38, p = 202650, H2 = 0.000775034
ExecutionTime = 37.65 s  ClockTime = 38 s

deltaT = 0.0005
Time = 0.0735

Qdot = -2.04646e-12, T = 2771.38, p = 202650, H2 = 0.000775034
ExecutionTime = 37.65 s  ClockTime = 38 s

deltaT = 0.0005
Time = 0.074

Qdot = 2.04646e-12, T = 2771.38, p = 202650, H2 = 0.000775034
ExecutionTime = 37.66 s  ClockTime = 38 s

deltaT = 0.0005
Time = 0.0745

Qdot = -2.04646e-12, T = 2771.38, p = 202650, H2 = 0.000775034
ExecutionTime = 37.66 s  ClockTime = 38 s

deltaT = 0.0005
Time = 0.075

Qdot = 2.04646e-12, T = 2771.38, p = 202650, H2 = 0.000775034
ExecutionTime = 37.67 s  ClockTime = 38 s

deltaT = 0.0005
Time = 0.0755

Qdot = -2.04646e-12, T = 2771.38, p = 202650, H2 = 0.000775034
ExecutionTime = 37.67 s  ClockTime = 38 s

deltaT = 0.0005
Time = 0.076

Qdot = 2.04646e-12, T = 2771.38, p = 202650, H2 = 0.000775034
ExecutionTime = 37.67 s  ClockTime = 38 s

deltaT = 0.0005
Time = 0.0765

Qdot = -2.04646e-12, T = 2771.38, p = 202650, H2 = 0.000775034
ExecutionTime = 37.67 s  ClockTime = 38 s

deltaT = 0.0005
Time = 0.077

Qdot = 2.04646e-12, T = 2771.38, p = 202650, H2 = 0.000775034
ExecutionTime = 37.67 s  ClockTime = 38 s

deltaT = 0.0005
Time = 0.0775

Qdot = -2.04646e-12, T = 2771.38, p = 202650, H2 = 0.000775034
ExecutionTime = 37.67 s  ClockTime = 38 s

deltaT = 0.0005
Time = 0.078

Qdot = 2.04646e-12, T = 2771.38, p = 202650, H2 = 0.000775034
ExecutionTime = 37.67 s  ClockTime = 38 s

deltaT = 0.0005
Time = 0.0785

Qdot = -2.04646e-12, T = 2771.38, p = 202650, H2 = 0.000775034
ExecutionTime = 37.67 s  ClockTime = 38 s

deltaT = 0.0005
Time = 0.079

Qdot = 2.04646e-12, T = 2771.38, p = 202650, H2 = 0.000775034
ExecutionTime = 37.67 s  ClockTime = 38 s

deltaT = 0.0005
Time = 0.0795

Qdot = -2.04646e-12, T = 2771.38, p = 202650, H2 = 0.000775034
ExecutionTime = 37.67 s  ClockTime = 38 s

deltaT = 0.0005
Time = 0.08

Qdot = 2.04646e-12, T = 2771.38, p = 202650, H2 = 0.000775034
ExecutionTime = 37.68 s  ClockTime = 38 s

deltaT = 0.0005
Time = 0.0805

Qdot = -2.04646e-12, T = 2771.38, p = 202650, H2 = 0.000775034
ExecutionTime = 37.68 s  ClockTime = 38 s

deltaT = 0.0005
Time = 0.081

Qdot = 2.04646e-12, T = 2771.38, p = 202650, H2 = 0.000775034
ExecutionTime = 37.68 s  ClockTime = 38 s

deltaT = 0.0005
Time = 0.0815

Qdot = -2.04646e-12, T = 2771.38, p = 202650, H2 = 0.000775034
ExecutionTime = 37.68 s  ClockTime = 38 s

deltaT = 0.0005
Time = 0.082

Qdot = 2.04646e-12, T = 2771.38, p = 202650, H2 = 0.000775034
ExecutionTime = 37.68 s  ClockTime = 38 s

deltaT = 0.0005
Time = 0.0825

Qdot = -2.04646e-12, T = 2771.38, p = 202650, H2 = 0.000775034
ExecutionTime = 37.68 s  ClockTime = 38 s

deltaT = 0.0005
Time = 0.083

Qdot = 2.04646e-12, T = 2771.38, p = 202650, H2 = 0.000775034
ExecutionTime = 37.68 s  ClockTime = 38 s

deltaT = 0.0005
Time = 0.0835

Qdot = -2.04646e-12, T = 2771.38, p = 202650, H2 = 0.000775034
ExecutionTime = 37.68 s  ClockTime = 38 s

deltaT = 0.0005
Time = 0.084

Qdot = 2.04646e-12, T = 2771.38, p = 202650, H2 = 0.000775034
ExecutionTime = 37.68 s  ClockTime = 38 s

deltaT = 0.0005
Time = 0.0845

Qdot = -2.04646e-12, T = 2771.38, p = 202650, H2 = 0.000775034
ExecutionTime = 37.68 s  ClockTime = 38 s

deltaT = 0.0005
Time = 0.085

Qdot = 2.04646e-12, T = 2771.38, p = 202650, H2 = 0.000775034
ExecutionTime = 37.69 s  ClockTime = 38 s

deltaT = 0.0005
Time = 0.0855

Qdot = -2.04646e-12, T = 2771.38, p = 202650, H2 = 0.000775034
ExecutionTime = 37.69 s  ClockTime = 38 s

deltaT = 0.0005
Time = 0.086

Qdot = 2.04646e-12, T = 2771.38, p = 202650, H2 = 0.000775034
ExecutionTime = 37.69 s  ClockTime = 38 s

deltaT = 0.0005
Time = 0.0865

Qdot = -2.04646e-12, T = 2771.38, p = 202650, H2 = 0.000775034
ExecutionTime = 37.69 s  ClockTime = 38 s

deltaT = 0.0005
Time = 0.087

Qdot = 2.04646e-12, T = 2771.38, p = 202650, H2 = 0.000775034
ExecutionTime = 37.7 s  ClockTime = 38 s

deltaT = 0.0005
Time = 0.0875

Qdot = -2.04646e-12, T = 2771.38, p = 202650, H2 = 0.000775034
ExecutionTime = 37.7 s  ClockTime = 38 s

deltaT = 0.0005
Time = 0.088

Qdot = 2.04646e-12, T = 2771.38, p = 202650, H2 = 0.000775034
ExecutionTime = 37.7 s  ClockTime = 38 s

deltaT = 0.0005
Time = 0.0885

Qdot = -1.11701e-11, T = 2771.38, p = 202650, H2 = 0.000775034
ExecutionTime = 37.7 s  ClockTime = 38 s

deltaT = 0.0005
Time = 0.089

Qdot = 2.04646e-12, T = 2771.38, p = 202650, H2 = 0.000775034
ExecutionTime = 37.7 s  ClockTime = 38 s

deltaT = 0.0005
Time = 0.0895

Qdot = -2.04646e-12, T = 2771.38, p = 202650, H2 = 0.000775034
ExecutionTime = 37.7 s  ClockTime = 38 s

deltaT = 0.0005
Time = 0.09

Qdot = 2.04646e-12, T = 2771.38, p = 202650, H2 = 0.000775034
ExecutionTime = 37.7 s  ClockTime = 38 s

deltaT = 0.0005
Time = 0.0905

Qdot = -2.04646e-12, T = 2771.38, p = 202650, H2 = 0.000775034
ExecutionTime = 37.7 s  ClockTime = 38 s

deltaT = 0.0005
Time = 0.091

Qdot = 2.04646e-12, T = 2771.38, p = 202650, H2 = 0.000775034
ExecutionTime = 37.71 s  ClockTime = 38 s

deltaT = 0.0005
Time = 0.0915

Qdot = -2.04646e-12, T = 2771.38, p = 202650, H2 = 0.000775034
ExecutionTime = 37.71 s  ClockTime = 38 s

deltaT = 0.0005
Time = 0.092

Qdot = 2.04646e-12, T = 2771.38, p = 202650, H2 = 0.000775034
ExecutionTime = 37.71 s  ClockTime = 38 s

deltaT = 0.0005
Time = 0.0925

Qdot = -2.04646e-12, T = 2771.38, p = 202650, H2 = 0.000775034
ExecutionTime = 37.71 s  ClockTime = 38 s

deltaT = 0.0005
Time = 0.093

Qdot = 2.04646e-12, T = 2771.38, p = 202650, H2 = 0.000775034
ExecutionTime = 37.71 s  ClockTime = 38 s

deltaT = 0.0005
Time = 0.0935

Qdot = -2.04646e-12, T = 2771.38, p = 202650, H2 = 0.000775034
ExecutionTime = 37.71 s  ClockTime = 38 s

deltaT = 0.0005
Time = 0.094

Qdot = 2.04646e-12, T = 2771.38, p = 202650, H2 = 0.000775034
ExecutionTime = 37.71 s  ClockTime = 38 s

deltaT = 0.0005
Time = 0.0945

Qdot = -2.04646e-12, T = 2771.38, p = 202650, H2 = 0.000775034
ExecutionTime = 37.71 s  ClockTime = 38 s

deltaT = 0.0005
Time = 0.095

Qdot = 2.04646e-12, T = 2771.38, p = 202650, H2 = 0.000775034
ExecutionTime = 37.72 s  ClockTime = 38 s

deltaT = 0.0005
Time = 0.0955

Qdot = -2.04646e-12, T = 2771.38, p = 202650, H2 = 0.000775034
ExecutionTime = 37.72 s  ClockTime = 38 s

deltaT = 0.0005
Time = 0.096

Qdot = 2.04646e-12, T = 2771.38, p = 202650, H2 = 0.000775034
ExecutionTime = 37.72 s  ClockTime = 38 s

deltaT = 0.0005
Time = 0.0965

Qdot = -2.04646e-12, T = 2771.38, p = 202650, H2 = 0.000775034
ExecutionTime = 37.72 s  ClockTime = 38 s

deltaT = 0.0005
Time = 0.097

Qdot = 2.04646e-12, T = 2771.38, p = 202650, H2 = 0.000775034
ExecutionTime = 37.72 s  ClockTime = 38 s

deltaT = 0.0005
Time = 0.0975

Qdot = -2.04646e-12, T = 2771.38, p = 202650, H2 = 0.000775034
ExecutionTime = 37.72 s  ClockTime = 38 s

deltaT = 0.0005
Time = 0.098

Qdot = 2.04646e-12, T = 2771.38, p = 202650, H2 = 0.000775034
ExecutionTime = 37.72 s  ClockTime = 38 s

deltaT = 0.0005
Time = 0.0985

Qdot = -2.04646e-12, T = 2771.38, p = 202650, H2 = 0.000775034
ExecutionTime = 37.73 s  ClockTime = 38 s

deltaT = 0.0005
Time = 0.099

Qdot = 2.04646e-12, T = 2771.38, p = 202650, H2 = 0.000775034
ExecutionTime = 37.73 s  ClockTime = 38 s

deltaT = 0.0005
Time = 0.0995

Qdot = -2.04646e-12, T = 2771.38, p = 202650, H2 = 0.000775034
ExecutionTime = 37.73 s  ClockTime = 38 s

deltaT = 0.0005
Time = 0.1

Qdot = 2.04646e-12, T = 2771.38, p = 202650, H2 = 0.000775034
ExecutionTime = 37.73 s  ClockTime = 38 s

deltaT = 0.0005
Time = 0.1005

Qdot = -2.04646e-12, T = 2771.38, p = 202650, H2 = 0.000775034
ExecutionTime = 37.73 s  ClockTime = 38 s

deltaT = 0.0005
Time = 0.101

Qdot = 2.04646e-12, T = 2771.38, p = 202650, H2 = 0.000775034
ExecutionTime = 37.73 s  ClockTime = 38 s

deltaT = 0.0005
Time = 0.1015

Qdot = -2.04646e-12, T = 2771.38, p = 202650, H2 = 0.000775034
ExecutionTime = 37.73 s  ClockTime = 38 s

deltaT = 0.0005
Time = 0.102

Qdot = 2.04646e-12, T = 2771.38, p = 202650, H2 = 0.000775034
ExecutionTime = 37.73 s  ClockTime = 38 s

deltaT = 0.0005
Time = 0.1025

Qdot = -2.04646e-12, T = 2771.38, p = 202650, H2 = 0.000775034
ExecutionTime = 37.73 s  ClockTime = 38 s

deltaT = 0.0005
Time = 0.103

Qdot = 2.04646e-12, T = 2771.38, p = 202650, H2 = 0.000775034
ExecutionTime = 37.73 s  ClockTime = 38 s

deltaT = 0.0005
Time = 0.1035

Qdot = -2.04646e-12, T = 2771.38, p = 202650, H2 = 0.000775034
ExecutionTime = 37.73 s  ClockTime = 38 s

deltaT = 0.0005
Time = 0.104

Qdot = 2.04646e-12, T = 2771.38, p = 202650, H2 = 0.000775034
ExecutionTime = 37.73 s  ClockTime = 38 s

deltaT = 0.0005
Time = 0.1045

Qdot = -2.04646e-12, T = 2771.38, p = 202650, H2 = 0.000775034
ExecutionTime = 37.74 s  ClockTime = 38 s

deltaT = 0.0005
Time = 0.105

Qdot = 1.10862e-12, T = 2771.38, p = 202650, H2 = 0.000775034
ExecutionTime = 37.74 s  ClockTime = 38 s

deltaT = 0.0005
Time = 0.1055

Qdot = -2.04646e-12, T = 2771.38, p = 202650, H2 = 0.000775034
ExecutionTime = 37.75 s  ClockTime = 38 s

deltaT = 0.0005
Time = 0.106

Qdot = 2.04646e-12, T = 2771.38, p = 202650, H2 = 0.000775034
ExecutionTime = 37.75 s  ClockTime = 38 s

deltaT = 0.0005
Time = 0.1065

Qdot = -2.04646e-12, T = 2771.38, p = 202650, H2 = 0.000775034
ExecutionTime = 37.75 s  ClockTime = 38 s

deltaT = 0.0005
Time = 0.107

Qdot = 2.04646e-12, T = 2771.38, p = 202650, H2 = 0.000775034
ExecutionTime = 37.75 s  ClockTime = 38 s

deltaT = 0.0005
Time = 0.1075

Qdot = -2.04646e-12, T = 2771.38, p = 202650, H2 = 0.000775034
ExecutionTime = 37.75 s  ClockTime = 38 s

deltaT = 0.0005
Time = 0.108

Qdot = 2.04646e-12, T = 2771.38, p = 202650, H2 = 0.000775034
ExecutionTime = 37.75 s  ClockTime = 38 s

deltaT = 0.0005
Time = 0.1085

Qdot = -2.04646e-12, T = 2771.38, p = 202650, H2 = 0.000775034
ExecutionTime = 37.75 s  ClockTime = 38 s

deltaT = 0.0005
Time = 0.109

Qdot = 2.04646e-12, T = 2771.38, p = 202650, H2 = 0.000775034
ExecutionTime = 37.75 s  ClockTime = 38 s

deltaT = 0.0005
Time = 0.1095

Qdot = -2.04646e-12, T = 2771.38, p = 202650, H2 = 0.000775034
ExecutionTime = 37.75 s  ClockTime = 38 s

deltaT = 0.0005
Time = 0.11

Qdot = 2.04646e-12, T = 2771.38, p = 202650, H2 = 0.000775034
ExecutionTime = 37.75 s  ClockTime = 38 s

deltaT = 0.0005
Time = 0.1105

Qdot = -2.04646e-12, T = 2771.38, p = 202650, H2 = 0.000775034
ExecutionTime = 37.75 s  ClockTime = 38 s

deltaT = 0.0005
Time = 0.111

Qdot = 2.04646e-12, T = 2771.38, p = 202650, H2 = 0.000775034
ExecutionTime = 37.75 s  ClockTime = 38 s

deltaT = 0.0005
Time = 0.1115

Qdot = -2.04646e-12, T = 2771.38, p = 202650, H2 = 0.000775034
ExecutionTime = 37.76 s  ClockTime = 38 s

deltaT = 0.0005
Time = 0.112

Qdot = 2.04646e-12, T = 2771.38, p = 202650, H2 = 0.000775034
ExecutionTime = 37.77 s  ClockTime = 38 s

deltaT = 0.0005
Time = 0.1125

Qdot = -2.04646e-12, T = 2771.38, p = 202650, H2 = 0.000775034
ExecutionTime = 37.77 s  ClockTime = 38 s

deltaT = 0.0005
Time = 0.113

Qdot = 2.04646e-12, T = 2771.38, p = 202650, H2 = 0.000775034
ExecutionTime = 37.77 s  ClockTime = 38 s

deltaT = 0.0005
Time = 0.1135

Qdot = -2.04646e-12, T = 2771.38, p = 202650, H2 = 0.000775034
ExecutionTime = 37.77 s  ClockTime = 38 s

deltaT = 0.0005
Time = 0.114

Qdot = 2.04646e-12, T = 2771.38, p = 202650, H2 = 0.000775034
ExecutionTime = 37.77 s  ClockTime = 38 s

deltaT = 0.0005
Time = 0.1145

Qdot = -2.04646e-12, T = 2771.38, p = 202650, H2 = 0.000775034
ExecutionTime = 37.77 s  ClockTime = 38 s

deltaT = 0.0005
Time = 0.115

Qdot = 2.04646e-12, T = 2771.38, p = 202650, H2 = 0.000775034
ExecutionTime = 37.77 s  ClockTime = 38 s

deltaT = 0.0005
Time = 0.1155

Qdot = -2.04646e-12, T = 2771.38, p = 202650, H2 = 0.000775034
ExecutionTime = 37.77 s  ClockTime = 38 s

deltaT = 0.0005
Time = 0.116

Qdot = 2.04646e-12, T = 2771.38, p = 202650, H2 = 0.000775034
ExecutionTime = 37.77 s  ClockTime = 38 s

deltaT = 0.0005
Time = 0.1165

Qdot = -2.04646e-12, T = 2771.38, p = 202650, H2 = 0.000775034
ExecutionTime = 37.77 s  ClockTime = 38 s

deltaT = 0.0005
Time = 0.117

Qdot = 2.04646e-12, T = 2771.38, p = 202650, H2 = 0.000775034
ExecutionTime = 37.77 s  ClockTime = 38 s

deltaT = 0.0005
Time = 0.1175

Qdot = -2.04646e-12, T = 2771.38, p = 202650, H2 = 0.000775034
ExecutionTime = 37.77 s  ClockTime = 38 s

deltaT = 0.0005
Time = 0.118

Qdot = 2.04646e-12, T = 2771.38, p = 202650, H2 = 0.000775034
ExecutionTime = 37.78 s  ClockTime = 38 s

deltaT = 0.0005
Time = 0.1185

Qdot = -2.04646e-12, T = 2771.38, p = 202650, H2 = 0.000775034
ExecutionTime = 37.78 s  ClockTime = 38 s

deltaT = 0.0005
Time = 0.119

Qdot = 2.04646e-12, T = 2771.38, p = 202650, H2 = 0.000775034
ExecutionTime = 37.78 s  ClockTime = 38 s

deltaT = 0.0005
Time = 0.1195

Qdot = -2.04646e-12, T = 2771.38, p = 202650, H2 = 0.000775034
ExecutionTime = 37.79 s  ClockTime = 39 s

deltaT = 0.0005
Time = 0.12

Qdot = 2.04646e-12, T = 2771.38, p = 202650, H2 = 0.000775034
ExecutionTime = 37.79 s  ClockTime = 39 s

deltaT = 0.0005
Time = 0.1205

Qdot = -1.11701e-11, T = 2771.38, p = 202650, H2 = 0.000775034
ExecutionTime = 37.79 s  ClockTime = 39 s

deltaT = 0.0005
Time = 0.121

Qdot = 2.04646e-12, T = 2771.38, p = 202650, H2 = 0.000775034
ExecutionTime = 37.79 s  ClockTime = 39 s

deltaT = 0.0005
Time = 0.1215

Qdot = -2.04646e-12, T = 2771.38, p = 202650, H2 = 0.000775034
ExecutionTime = 37.79 s  ClockTime = 39 s

deltaT = 0.0005
Time = 0.122

Qdot = 2.04646e-12, T = 2771.38, p = 202650, H2 = 0.000775034
ExecutionTime = 37.79 s  ClockTime = 39 s

deltaT = 0.0005
Time = 0.1225

Qdot = -2.04646e-12, T = 2771.38, p = 202650, H2 = 0.000775034
ExecutionTime = 37.79 s  ClockTime = 39 s

deltaT = 0.0005
Time = 0.123

Qdot = 2.04646e-12, T = 2771.38, p = 202650, H2 = 0.000775034
ExecutionTime = 37.79 s  ClockTime = 39 s

deltaT = 0.0005
Time = 0.1235

Qdot = -2.04646e-12, T = 2771.38, p = 202650, H2 = 0.000775034
ExecutionTime = 37.79 s  ClockTime = 39 s

deltaT = 0.0005
Time = 0.124

Qdot = 2.04646e-12, T = 2771.38, p = 202650, H2 = 0.000775034
ExecutionTime = 37.8 s  ClockTime = 39 s

deltaT = 0.0005
Time = 0.1245

Qdot = -2.04646e-12, T = 2771.38, p = 202650, H2 = 0.000775034
ExecutionTime = 37.8 s  ClockTime = 39 s

deltaT = 0.0005
Time = 0.125

Qdot = 2.04646e-12, T = 2771.38, p = 202650, H2 = 0.000775034
ExecutionTime = 37.8 s  ClockTime = 39 s

deltaT = 0.0005
Time = 0.1255

Qdot = -2.04646e-12, T = 2771.38, p = 202650, H2 = 0.000775034
ExecutionTime = 37.8 s  ClockTime = 39 s

deltaT = 0.0005
Time = 0.126

Qdot = 2.04646e-12, T = 2771.38, p = 202650, H2 = 0.000775034
ExecutionTime = 37.8 s  ClockTime = 39 s

deltaT = 0.0005
Time = 0.1265

Qdot = -2.04646e-12, T = 2771.38, p = 202650, H2 = 0.000775034
ExecutionTime = 37.81 s  ClockTime = 39 s

deltaT = 0.0005
Time = 0.127

Qdot = 2.04646e-12, T = 2771.38, p = 202650, H2 = 0.000775034
ExecutionTime = 37.81 s  ClockTime = 39 s

deltaT = 0.0005
Time = 0.1275

Qdot = -2.04646e-12, T = 2771.38, p = 202650, H2 = 0.000775034
ExecutionTime = 37.81 s  ClockTime = 39 s

deltaT = 0.0005
Time = 0.128

Qdot = 2.04646e-12, T = 2771.38, p = 202650, H2 = 0.000775034
ExecutionTime = 37.81 s  ClockTime = 39 s

deltaT = 0.0005
Time = 0.1285

Qdot = -2.04646e-12, T = 2771.38, p = 202650, H2 = 0.000775034
ExecutionTime = 37.81 s  ClockTime = 39 s

deltaT = 0.0005
Time = 0.129

Qdot = 2.04646e-12, T = 2771.38, p = 202650, H2 = 0.000775034
ExecutionTime = 37.81 s  ClockTime = 39 s

deltaT = 0.0005
Time = 0.1295

Qdot = -2.04646e-12, T = 2771.38, p = 202650, H2 = 0.000775034
ExecutionTime = 37.81 s  ClockTime = 39 s

deltaT = 0.0005
Time = 0.13

Qdot = 2.04646e-12, T = 2771.38, p = 202650, H2 = 0.000775034
ExecutionTime = 37.81 s  ClockTime = 39 s

deltaT = 0.0005
Time = 0.1305

Qdot = -2.04646e-12, T = 2771.38, p = 202650, H2 = 0.000775034
ExecutionTime = 37.81 s  ClockTime = 39 s

deltaT = 0.0005
Time = 0.131

Qdot = 2.04646e-12, T = 2771.38, p = 202650, H2 = 0.000775034
ExecutionTime = 37.81 s  ClockTime = 39 s

deltaT = 0.0005
Time = 0.1315

Qdot = -2.04646e-12, T = 2771.38, p = 202650, H2 = 0.000775034
ExecutionTime = 37.81 s  ClockTime = 39 s

deltaT = 0.0005
Time = 0.132

Qdot = 2.04646e-12, T = 2771.38, p = 202650, H2 = 0.000775034
ExecutionTime = 37.82 s  ClockTime = 39 s

deltaT = 0.0005
Time = 0.1325

Qdot = -2.04646e-12, T = 2771.38, p = 202650, H2 = 0.000775034
ExecutionTime = 37.82 s  ClockTime = 39 s

deltaT = 0.0005
Time = 0.133

Qdot = 2.04646e-12, T = 2771.38, p = 202650, H2 = 0.000775034
ExecutionTime = 37.82 s  ClockTime = 39 s

deltaT = 0.0005
Time = 0.1335

Qdot = -2.04646e-12, T = 2771.38, p = 202650, H2 = 0.000775034
ExecutionTime = 37.82 s  ClockTime = 39 s

deltaT = 0.0005
Time = 0.134

Qdot = 2.04646e-12, T = 2771.38, p = 202650, H2 = 0.000775034
ExecutionTime = 37.82 s  ClockTime = 39 s

deltaT = 0.0005
Time = 0.1345

Qdot = -2.04646e-12, T = 2771.38, p = 202650, H2 = 0.000775034
ExecutionTime = 37.82 s  ClockTime = 39 s

deltaT = 0.0005
Time = 0.135

Qdot = 2.04646e-12, T = 2771.38, p = 202650, H2 = 0.000775034
ExecutionTime = 37.82 s  ClockTime = 39 s

deltaT = 0.0005
Time = 0.1355

Qdot = -2.04646e-12, T = 2771.38, p = 202650, H2 = 0.000775034
ExecutionTime = 37.83 s  ClockTime = 39 s

deltaT = 0.0005
Time = 0.136

Qdot = 2.04646e-12, T = 2771.38, p = 202650, H2 = 0.000775034
ExecutionTime = 37.83 s  ClockTime = 39 s

deltaT = 0.0005
Time = 0.1365

Qdot = -2.04646e-12, T = 2771.38, p = 202650, H2 = 0.000775034
ExecutionTime = 37.83 s  ClockTime = 39 s

deltaT = 0.0005
Time = 0.137

Qdot = 2.04646e-12, T = 2771.38, p = 202650, H2 = 0.000775034
ExecutionTime = 37.83 s  ClockTime = 39 s

deltaT = 0.0005
Time = 0.1375

Qdot = -2.04646e-12, T = 2771.38, p = 202650, H2 = 0.000775034
ExecutionTime = 37.83 s  ClockTime = 39 s

deltaT = 0.0005
Time = 0.138

Qdot = 2.04646e-12, T = 2771.38, p = 202650, H2 = 0.000775034
ExecutionTime = 37.83 s  ClockTime = 39 s

deltaT = 0.0005
Time = 0.1385

Qdot = -2.04646e-12, T = 2771.38, p = 202650, H2 = 0.000775034
ExecutionTime = 37.84 s  ClockTime = 39 s

deltaT = 0.0005
Time = 0.139

Qdot = 2.04646e-12, T = 2771.38, p = 202650, H2 = 0.000775034
ExecutionTime = 37.84 s  ClockTime = 39 s

deltaT = 0.0005
Time = 0.1395

Qdot = -2.04646e-12, T = 2771.38, p = 202650, H2 = 0.000775034
ExecutionTime = 37.84 s  ClockTime = 39 s

deltaT = 0.0005
Time = 0.14

Qdot = 2.04646e-12, T = 2771.38, p = 202650, H2 = 0.000775034
ExecutionTime = 37.84 s  ClockTime = 39 s

deltaT = 0.0005
Time = 0.1405

Qdot = -2.04646e-12, T = 2771.38, p = 202650, H2 = 0.000775034
ExecutionTime = 37.84 s  ClockTime = 39 s

deltaT = 0.0005
Time = 0.141

Qdot = 2.04646e-12, T = 2771.38, p = 202650, H2 = 0.000775034
ExecutionTime = 37.84 s  ClockTime = 39 s

deltaT = 0.0005
Time = 0.1415

Qdot = -2.04646e-12, T = 2771.38, p = 202650, H2 = 0.000775034
ExecutionTime = 37.84 s  ClockTime = 39 s

deltaT = 0.0005
Time = 0.142

Qdot = 2.04646e-12, T = 2771.38, p = 202650, H2 = 0.000775034
ExecutionTime = 37.84 s  ClockTime = 39 s

deltaT = 0.0005
Time = 0.1425

Qdot = -2.04646e-12, T = 2771.38, p = 202650, H2 = 0.000775034
ExecutionTime = 37.84 s  ClockTime = 39 s

deltaT = 0.0005
Time = 0.143

Qdot = 2.04646e-12, T = 2771.38, p = 202650, H2 = 0.000775034
ExecutionTime = 37.84 s  ClockTime = 39 s

deltaT = 0.0005
Time = 0.1435

Qdot = -2.04646e-12, T = 2771.38, p = 202650, H2 = 0.000775034
ExecutionTime = 37.84 s  ClockTime = 39 s

deltaT = 0.0005
Time = 0.144

Qdot = 2.04646e-12, T = 2771.38, p = 202650, H2 = 0.000775034
ExecutionTime = 37.84 s  ClockTime = 39 s

deltaT = 0.0005
Time = 0.1445

Qdot = -2.04646e-12, T = 2771.38, p = 202650, H2 = 0.000775034
ExecutionTime = 37.85 s  ClockTime = 39 s

deltaT = 0.0005
Time = 0.145

Qdot = -1.92017e-08, T = 2771.38, p = 202650, H2 = 0.000775034
ExecutionTime = 37.85 s  ClockTime = 39 s

deltaT = 0.0005
Time = 0.1455

Qdot = -2.04646e-12, T = 2771.38, p = 202650, H2 = 0.000775034
ExecutionTime = 37.85 s  ClockTime = 39 s

deltaT = 0.0005
Time = 0.146

Qdot = 2.04646e-12, T = 2771.38, p = 202650, H2 = 0.000775034
ExecutionTime = 37.85 s  ClockTime = 39 s

deltaT = 0.0005
Time = 0.1465

Qdot = -2.04646e-12, T = 2771.38, p = 202650, H2 = 0.000775034
ExecutionTime = 37.85 s  ClockTime = 39 s

deltaT = 0.0005
Time = 0.147

Qdot = 2.04646e-12, T = 2771.38, p = 202650, H2 = 0.000775034
ExecutionTime = 37.85 s  ClockTime = 39 s

deltaT = 0.0005
Time = 0.1475

Qdot = -2.04646e-12, T = 2771.38, p = 202650, H2 = 0.000775034
ExecutionTime = 37.85 s  ClockTime = 39 s

deltaT = 0.0005
Time = 0.148

Qdot = 2.04646e-12, T = 2771.38, p = 202650, H2 = 0.000775034
ExecutionTime = 37.86 s  ClockTime = 39 s

deltaT = 0.0005
Time = 0.1485

Qdot = -2.04646e-12, T = 2771.38, p = 202650, H2 = 0.000775034
ExecutionTime = 37.86 s  ClockTime = 39 s

deltaT = 0.0005
Time = 0.149

Qdot = 2.04646e-12, T = 2771.38, p = 202650, H2 = 0.000775034
ExecutionTime = 37.86 s  ClockTime = 39 s

deltaT = 0.0005
Time = 0.1495

Qdot = -2.04646e-12, T = 2771.38, p = 202650, H2 = 0.000775034
ExecutionTime = 37.86 s  ClockTime = 39 s

deltaT = 0.0005
Time = 0.15

Qdot = 2.04646e-12, T = 2771.38, p = 202650, H2 = 0.000775034
ExecutionTime = 37.86 s  ClockTime = 39 s

deltaT = 0.0005
Time = 0.1505

Qdot = -2.04646e-12, T = 2771.38, p = 202650, H2 = 0.000775034
ExecutionTime = 37.86 s  ClockTime = 39 s

deltaT = 0.0005
Time = 0.151

Qdot = 2.04646e-12, T = 2771.38, p = 202650, H2 = 0.000775034
ExecutionTime = 37.86 s  ClockTime = 39 s

deltaT = 0.0005
Time = 0.1515

Qdot = -2.04646e-12, T = 2771.38, p = 202650, H2 = 0.000775034
ExecutionTime = 37.87 s  ClockTime = 39 s

deltaT = 0.0005
Time = 0.152

Qdot = 2.04646e-12, T = 2771.38, p = 202650, H2 = 0.000775034
ExecutionTime = 37.88 s  ClockTime = 39 s

deltaT = 0.0005
Time = 0.1525

Qdot = -2.04646e-12, T = 2771.38, p = 202650, H2 = 0.000775034
ExecutionTime = 37.88 s  ClockTime = 39 s

deltaT = 0.0005
Time = 0.153

Qdot = 2.04646e-12, T = 2771.38, p = 202650, H2 = 0.000775034
ExecutionTime = 37.88 s  ClockTime = 39 s

deltaT = 0.0005
Time = 0.1535

Qdot = -2.04646e-12, T = 2771.38, p = 202650, H2 = 0.000775034
ExecutionTime = 37.88 s  ClockTime = 39 s

deltaT = 0.0005
Time = 0.154

Qdot = 2.04646e-12, T = 2771.38, p = 202650, H2 = 0.000775034
ExecutionTime = 37.88 s  ClockTime = 39 s

deltaT = 0.0005
Time = 0.1545

Qdot = -2.04646e-12, T = 2771.38, p = 202650, H2 = 0.000775034
ExecutionTime = 37.88 s  ClockTime = 39 s

deltaT = 0.0005
Time = 0.155

Qdot = 2.04646e-12, T = 2771.38, p = 202650, H2 = 0.000775034
ExecutionTime = 37.88 s  ClockTime = 39 s

deltaT = 0.0005
Time = 0.1555

Qdot = -2.04646e-12, T = 2771.38, p = 202650, H2 = 0.000775034
ExecutionTime = 37.88 s  ClockTime = 39 s

deltaT = 0.0005
Time = 0.156

Qdot = 2.04646e-12, T = 2771.38, p = 202650, H2 = 0.000775034
ExecutionTime = 37.88 s  ClockTime = 39 s

deltaT = 0.0005
Time = 0.1565

Qdot = -2.04646e-12, T = 2771.38, p = 202650, H2 = 0.000775034
ExecutionTime = 37.88 s  ClockTime = 39 s

deltaT = 0.0005
Time = 0.157

Qdot = 2.04646e-12, T = 2771.38, p = 202650, H2 = 0.000775034
ExecutionTime = 37.88 s  ClockTime = 39 s

deltaT = 0.0005
Time = 0.1575

Qdot = -2.04646e-12, T = 2771.38, p = 202650, H2 = 0.000775034
ExecutionTime = 37.89 s  ClockTime = 39 s

deltaT = 0.0005
Time = 0.158

Qdot = 2.04646e-12, T = 2771.38, p = 202650, H2 = 0.000775034
ExecutionTime = 37.89 s  ClockTime = 39 s

deltaT = 0.0005
Time = 0.1585

Qdot = -2.04646e-12, T = 2771.38, p = 202650, H2 = 0.000775034
ExecutionTime = 37.89 s  ClockTime = 39 s

deltaT = 0.0005
Time = 0.159

Qdot = 2.04646e-12, T = 2771.38, p = 202650, H2 = 0.000775034
ExecutionTime = 37.89 s  ClockTime = 39 s

deltaT = 0.0005
Time = 0.1595

Qdot = -2.04646e-12, T = 2771.38, p = 202650, H2 = 0.000775034
ExecutionTime = 37.89 s  ClockTime = 39 s

deltaT = 0.0005
Time = 0.16

Qdot = 2.04646e-12, T = 2771.38, p = 202650, H2 = 0.000775034
ExecutionTime = 37.89 s  ClockTime = 39 s

deltaT = 0.0005
Time = 0.1605

Qdot = -2.04646e-12, T = 2771.38, p = 202650, H2 = 0.000775034
ExecutionTime = 37.89 s  ClockTime = 39 s

deltaT = 0.0005
Time = 0.161

Qdot = 2.04646e-12, T = 2771.38, p = 202650, H2 = 0.000775034
ExecutionTime = 37.89 s  ClockTime = 39 s

deltaT = 0.0005
Time = 0.1615

Qdot = -2.04646e-12, T = 2771.38, p = 202650, H2 = 0.000775034
ExecutionTime = 37.9 s  ClockTime = 39 s

deltaT = 0.0005
Time = 0.162

Qdot = 2.04646e-12, T = 2771.38, p = 202650, H2 = 0.000775034
ExecutionTime = 37.9 s  ClockTime = 39 s

deltaT = 0.0005
Time = 0.1625

Qdot = -2.04646e-12, T = 2771.38, p = 202650, H2 = 0.000775034
ExecutionTime = 37.9 s  ClockTime = 39 s

deltaT = 0.0005
Time = 0.163

Qdot = 2.04646e-12, T = 2771.38, p = 202650, H2 = 0.000775034
ExecutionTime = 37.9 s  ClockTime = 39 s

deltaT = 0.0005
Time = 0.1635

Qdot = -2.04646e-12, T = 2771.38, p = 202650, H2 = 0.000775034
ExecutionTime = 37.9 s  ClockTime = 39 s

deltaT = 0.0005
Time = 0.164

Qdot = 2.04646e-12, T = 2771.38, p = 202650, H2 = 0.000775034
ExecutionTime = 37.9 s  ClockTime = 39 s

deltaT = 0.0005
Time = 0.1645

Qdot = -2.04646e-12, T = 2771.38, p = 202650, H2 = 0.000775034
ExecutionTime = 37.9 s  ClockTime = 39 s

deltaT = 0.0005
Time = 0.165

Qdot = 2.04646e-12, T = 2771.38, p = 202650, H2 = 0.000775034
ExecutionTime = 37.91 s  ClockTime = 39 s

deltaT = 0.0005
Time = 0.1655

Qdot = -2.04646e-12, T = 2771.38, p = 202650, H2 = 0.000775034
ExecutionTime = 37.91 s  ClockTime = 39 s

deltaT = 0.0005
Time = 0.166

Qdot = 2.04646e-12, T = 2771.38, p = 202650, H2 = 0.000775034
ExecutionTime = 37.91 s  ClockTime = 39 s

deltaT = 0.0005
Time = 0.1665

Qdot = -2.04646e-12, T = 2771.38, p = 202650, H2 = 0.000775034
ExecutionTime = 37.91 s  ClockTime = 39 s

deltaT = 0.0005
Time = 0.167

Qdot = 2.04646e-12, T = 2771.38, p = 202650, H2 = 0.000775034
ExecutionTime = 37.91 s  ClockTime = 39 s

deltaT = 0.0005
Time = 0.1675

Qdot = -2.04646e-12, T = 2771.38, p = 202650, H2 = 0.000775034
ExecutionTime = 37.91 s  ClockTime = 39 s

deltaT = 0.0005
Time = 0.168

Qdot = 2.04646e-12, T = 2771.38, p = 202650, H2 = 0.000775034
ExecutionTime = 37.92 s  ClockTime = 39 s

deltaT = 0.0005
Time = 0.1685

Qdot = -2.04646e-12, T = 2771.38, p = 202650, H2 = 0.000775034
ExecutionTime = 37.92 s  ClockTime = 39 s

deltaT = 0.0005
Time = 0.169

Qdot = 2.04646e-12, T = 2771.38, p = 202650, H2 = 0.000775034
ExecutionTime = 37.92 s  ClockTime = 39 s

deltaT = 0.0005
Time = 0.1695

Qdot = -2.04646e-12, T = 2771.38, p = 202650, H2 = 0.000775034
ExecutionTime = 37.92 s  ClockTime = 39 s

deltaT = 0.0005
Time = 0.17

Qdot = 2.04646e-12, T = 2771.38, p = 202650, H2 = 0.000775034
ExecutionTime = 37.92 s  ClockTime = 39 s

deltaT = 0.0005
Time = 0.1705

Qdot = -2.04646e-12, T = 2771.38, p = 202650, H2 = 0.000775034
ExecutionTime = 37.92 s  ClockTime = 39 s

deltaT = 0.0005
Time = 0.171

Qdot = 2.04646e-12, T = 2771.38, p = 202650, H2 = 0.000775034
ExecutionTime = 37.92 s  ClockTime = 39 s

deltaT = 0.0005
Time = 0.1715

Qdot = -2.04646e-12, T = 2771.38, p = 202650, H2 = 0.000775034
ExecutionTime = 37.92 s  ClockTime = 39 s

deltaT = 0.0005
Time = 0.172

Qdot = 2.04646e-12, T = 2771.38, p = 202650, H2 = 0.000775034
ExecutionTime = 37.92 s  ClockTime = 39 s

deltaT = 0.0005
Time = 0.1725

Qdot = -2.04646e-12, T = 2771.38, p = 202650, H2 = 0.000775034
ExecutionTime = 37.93 s  ClockTime = 39 s

deltaT = 0.0005
Time = 0.173

Qdot = 2.04646e-12, T = 2771.38, p = 202650, H2 = 0.000775034
ExecutionTime = 37.93 s  ClockTime = 39 s

deltaT = 0.0005
Time = 0.1735

Qdot = -2.04646e-12, T = 2771.38, p = 202650, H2 = 0.000775034
ExecutionTime = 37.93 s  ClockTime = 39 s

deltaT = 0.0005
Time = 0.174

Qdot = 2.04646e-12, T = 2771.38, p = 202650, H2 = 0.000775034
ExecutionTime = 37.94 s  ClockTime = 39 s

deltaT = 0.0005
Time = 0.1745

Qdot = -2.04646e-12, T = 2771.38, p = 202650, H2 = 0.000775034
ExecutionTime = 37.94 s  ClockTime = 39 s

deltaT = 0.0005
Time = 0.175

Qdot = 2.04646e-12, T = 2771.38, p = 202650, H2 = 0.000775034
ExecutionTime = 37.94 s  ClockTime = 39 s

deltaT = 0.0005
Time = 0.1755

Qdot = -2.04646e-12, T = 2771.38, p = 202650, H2 = 0.000775034
ExecutionTime = 37.94 s  ClockTime = 39 s

deltaT = 0.0005
Time = 0.176

Qdot = 2.04646e-12, T = 2771.38, p = 202650, H2 = 0.000775034
ExecutionTime = 37.94 s  ClockTime = 39 s

deltaT = 0.0005
Time = 0.1765

Qdot = -1.9214e-08, T = 2771.38, p = 202650, H2 = 0.000775034
ExecutionTime = 37.94 s  ClockTime = 39 s

deltaT = 0.0005
Time = 0.177

Qdot = 2.04646e-12, T = 2771.38, p = 202650, H2 = 0.000775034
ExecutionTime = 37.94 s  ClockTime = 39 s

deltaT = 0.0005
Time = 0.1775

Qdot = -2.04646e-12, T = 2771.38, p = 202650, H2 = 0.000775034
ExecutionTime = 37.94 s  ClockTime = 39 s

deltaT = 0.0005
Time = 0.178

Qdot = 2.04646e-12, T = 2771.38, p = 202650, H2 = 0.000775034
ExecutionTime = 37.94 s  ClockTime = 39 s

deltaT = 0.0005
Time = 0.1785

Qdot = -2.04646e-12, T = 2771.38, p = 202650, H2 = 0.000775034
ExecutionTime = 37.94 s  ClockTime = 39 s

deltaT = 0.0005
Time = 0.179

Qdot = 2.04646e-12, T = 2771.38, p = 202650, H2 = 0.000775034
ExecutionTime = 37.95 s  ClockTime = 39 s

deltaT = 0.0005
Time = 0.1795

Qdot = -2.04646e-12, T = 2771.38, p = 202650, H2 = 0.000775034
ExecutionTime = 37.96 s  ClockTime = 39 s

deltaT = 0.0005
Time = 0.18

Qdot = 2.04646e-12, T = 2771.38, p = 202650, H2 = 0.000775034
ExecutionTime = 37.96 s  ClockTime = 39 s

deltaT = 0.0005
Time = 0.1805

Qdot = -2.04646e-12, T = 2771.38, p = 202650, H2 = 0.000775034
ExecutionTime = 37.96 s  ClockTime = 39 s

deltaT = 0.0005
Time = 0.181

Qdot = 2.04646e-12, T = 2771.38, p = 202650, H2 = 0.000775034
ExecutionTime = 37.96 s  ClockTime = 39 s

deltaT = 0.0005
Time = 0.1815

Qdot = -2.04646e-12, T = 2771.38, p = 202650, H2 = 0.000775034
ExecutionTime = 37.96 s  ClockTime = 39 s

deltaT = 0.0005
Time = 0.182

Qdot = 2.04646e-12, T = 2771.38, p = 202650, H2 = 0.000775034
ExecutionTime = 37.96 s  ClockTime = 39 s

deltaT = 0.0005
Time = 0.1825

Qdot = -2.04646e-12, T = 2771.38, p = 202650, H2 = 0.000775034
ExecutionTime = 37.96 s  ClockTime = 39 s

deltaT = 0.0005
Time = 0.183

Qdot = 2.04646e-12, T = 2771.38, p = 202650, H2 = 0.000775034
ExecutionTime = 37.96 s  ClockTime = 39 s

deltaT = 0.0005
Time = 0.1835

Qdot = -2.04646e-12, T = 2771.38, p = 202650, H2 = 0.000775034
ExecutionTime = 37.96 s  ClockTime = 39 s

deltaT = 0.0005
Time = 0.184

Qdot = 2.04646e-12, T = 2771.38, p = 202650, H2 = 0.000775034
ExecutionTime = 37.96 s  ClockTime = 39 s

deltaT = 0.0005
Time = 0.1845

Qdot = -2.04646e-12, T = 2771.38, p = 202650, H2 = 0.000775034
ExecutionTime = 37.96 s  ClockTime = 39 s

deltaT = 0.0005
Time = 0.185

Qdot = 2.04646e-12, T = 2771.38, p = 202650, H2 = 0.000775034
ExecutionTime = 37.97 s  ClockTime = 39 s

deltaT = 0.0005
Time = 0.1855

Qdot = -2.04646e-12, T = 2771.38, p = 202650, H2 = 0.000775034
ExecutionTime = 37.97 s  ClockTime = 39 s

deltaT = 0.0005
Time = 0.186

Qdot = 2.04646e-12, T = 2771.38, p = 202650, H2 = 0.000775034
ExecutionTime = 37.97 s  ClockTime = 39 s

deltaT = 0.0005
Time = 0.1865

Qdot = -2.04646e-12, T = 2771.38, p = 202650, H2 = 0.000775034
ExecutionTime = 37.97 s  ClockTime = 39 s

deltaT = 0.0005
Time = 0.187

Qdot = 2.04646e-12, T = 2771.38, p = 202650, H2 = 0.000775034
ExecutionTime = 37.97 s  ClockTime = 39 s

deltaT = 0.0005
Time = 0.1875

Qdot = -2.04646e-12, T = 2771.38, p = 202650, H2 = 0.000775034
ExecutionTime = 37.97 s  ClockTime = 39 s

deltaT = 0.0005
Time = 0.188

Qdot = 2.04646e-12, T = 2771.38, p = 202650, H2 = 0.000775034
ExecutionTime = 37.97 s  ClockTime = 39 s

deltaT = 0.0005
Time = 0.1885

Qdot = -2.04646e-12, T = 2771.38, p = 202650, H2 = 0.000775034
ExecutionTime = 37.98 s  ClockTime = 39 s

deltaT = 0.0005
Time = 0.189

Qdot = 2.04646e-12, T = 2771.38, p = 202650, H2 = 0.000775034
ExecutionTime = 37.98 s  ClockTime = 39 s

deltaT = 0.0005
Time = 0.1895

Qdot = -2.04646e-12, T = 2771.38, p = 202650, H2 = 0.000775034
ExecutionTime = 37.98 s  ClockTime = 39 s

deltaT = 0.0005
Time = 0.19

Qdot = 2.04646e-12, T = 2771.38, p = 202650, H2 = 0.000775034
ExecutionTime = 37.98 s  ClockTime = 39 s

deltaT = 0.0005
Time = 0.1905

Qdot = -2.04646e-12, T = 2771.38, p = 202650, H2 = 0.000775034
ExecutionTime = 37.98 s  ClockTime = 39 s

deltaT = 0.0005
Time = 0.191

Qdot = 2.04646e-12, T = 2771.38, p = 202650, H2 = 0.000775034
ExecutionTime = 37.98 s  ClockTime = 39 s

deltaT = 0.0005
Time = 0.1915

Qdot = -2.04646e-12, T = 2771.38, p = 202650, H2 = 0.000775034
ExecutionTime = 37.98 s  ClockTime = 39 s

deltaT = 0.0005
Time = 0.192

Qdot = 2.04646e-12, T = 2771.38, p = 202650, H2 = 0.000775034
ExecutionTime = 37.98 s  ClockTime = 39 s

deltaT = 0.0005
Time = 0.1925

Qdot = -2.04646e-12, T = 2771.38, p = 202650, H2 = 0.000775034
ExecutionTime = 37.98 s  ClockTime = 39 s

deltaT = 0.0005
Time = 0.193

Qdot = 2.04646e-12, T = 2771.38, p = 202650, H2 = 0.000775034
ExecutionTime = 37.98 s  ClockTime = 39 s

deltaT = 0.0005
Time = 0.1935

Qdot = -2.04646e-12, T = 2771.38, p = 202650, H2 = 0.000775034
ExecutionTime = 37.99 s  ClockTime = 39 s

deltaT = 0.0005
Time = 0.194

Qdot = 2.04646e-12, T = 2771.38, p = 202650, H2 = 0.000775034
ExecutionTime = 37.99 s  ClockTime = 39 s

deltaT = 0.0005
Time = 0.1945

Qdot = -2.04646e-12, T = 2771.38, p = 202650, H2 = 0.000775034
ExecutionTime = 37.99 s  ClockTime = 39 s

deltaT = 0.0005
Time = 0.195

Qdot = 2.04646e-12, T = 2771.38, p = 202650, H2 = 0.000775034
ExecutionTime = 37.99 s  ClockTime = 39 s

deltaT = 0.0005
Time = 0.1955

Qdot = -2.04646e-12, T = 2771.38, p = 202650, H2 = 0.000775034
ExecutionTime = 37.99 s  ClockTime = 39 s

deltaT = 0.0005
Time = 0.196

Qdot = 2.04646e-12, T = 2771.38, p = 202650, H2 = 0.000775034
ExecutionTime = 37.99 s  ClockTime = 39 s

deltaT = 0.0005
Time = 0.1965

Qdot = -2.04646e-12, T = 2771.38, p = 202650, H2 = 0.000775034
ExecutionTime = 37.99 s  ClockTime = 39 s

deltaT = 0.0005
Time = 0.197

Qdot = 2.04646e-12, T = 2771.38, p = 202650, H2 = 0.000775034
ExecutionTime = 37.99 s  ClockTime = 39 s

deltaT = 0.0005
Time = 0.1975

Qdot = -2.04646e-12, T = 2771.38, p = 202650, H2 = 0.000775034
ExecutionTime = 37.99 s  ClockTime = 39 s

deltaT = 0.0005
Time = 0.198

Qdot = 2.04646e-12, T = 2771.38, p = 202650, H2 = 0.000775034
ExecutionTime = 38 s  ClockTime = 39 s

deltaT = 0.0005
Time = 0.1985

Qdot = -2.04646e-12, T = 2771.38, p = 202650, H2 = 0.000775034
ExecutionTime = 38.01 s  ClockTime = 39 s

deltaT = 0.0005
Time = 0.199

Qdot = 2.04646e-12, T = 2771.38, p = 202650, H2 = 0.000775034
ExecutionTime = 38.01 s  ClockTime = 39 s

deltaT = 0.0005
Time = 0.1995

Qdot = -2.04646e-12, T = 2771.38, p = 202650, H2 = 0.000775034
ExecutionTime = 38.01 s  ClockTime = 39 s

deltaT = 0.0005
Time = 0.2

Qdot = 2.04646e-12, T = 2771.38, p = 202650, H2 = 0.000775034
ExecutionTime = 38.01 s  ClockTime = 39 s

deltaT = 0.0005
Time = 0.2005

Qdot = -2.04646e-12, T = 2771.38, p = 202650, H2 = 0.000775034
ExecutionTime = 38.01 s  ClockTime = 39 s

deltaT = 0.0005
Time = 0.201

Qdot = 2.04646e-12, T = 2771.38, p = 202650, H2 = 0.000775034
ExecutionTime = 38.01 s  ClockTime = 39 s

deltaT = 0.0005
Time = 0.2015

Qdot = -2.04646e-12, T = 2771.38, p = 202650, H2 = 0.000775034
ExecutionTime = 38.01 s  ClockTime = 39 s

deltaT = 0.0005
Time = 0.202

Qdot = 2.04646e-12, T = 2771.38, p = 202650, H2 = 0.000775034
ExecutionTime = 38.01 s  ClockTime = 39 s

deltaT = 0.0005
Time = 0.2025

Qdot = -2.04646e-12, T = 2771.38, p = 202650, H2 = 0.000775034
ExecutionTime = 38.01 s  ClockTime = 39 s

deltaT = 0.0005
Time = 0.203

Qdot = 2.04646e-12, T = 2771.38, p = 202650, H2 = 0.000775034
ExecutionTime = 38.01 s  ClockTime = 39 s

deltaT = 0.0005
Time = 0.2035

Qdot = -2.04646e-12, T = 2771.38, p = 202650, H2 = 0.000775034
ExecutionTime = 38.02 s  ClockTime = 39 s

deltaT = 0.0005
Time = 0.204

Qdot = 2.04646e-12, T = 2771.38, p = 202650, H2 = 0.000775034
ExecutionTime = 38.02 s  ClockTime = 39 s

deltaT = 0.0005
Time = 0.2045

Qdot = -2.04646e-12, T = 2771.38, p = 202650, H2 = 0.000775034
ExecutionTime = 38.02 s  ClockTime = 39 s

deltaT = 0.0005
Time = 0.205

Qdot = 2.04646e-12, T = 2771.38, p = 202650, H2 = 0.000775034
ExecutionTime = 38.02 s  ClockTime = 39 s

deltaT = 0.0005
Time = 0.2055

Qdot = -2.04646e-12, T = 2771.38, p = 202650, H2 = 0.000775034
ExecutionTime = 38.02 s  ClockTime = 39 s

deltaT = 0.0005
Time = 0.206

Qdot = 2.04646e-12, T = 2771.38, p = 202650, H2 = 0.000775034
ExecutionTime = 38.02 s  ClockTime = 39 s

deltaT = 0.0005
Time = 0.2065

Qdot = -2.04646e-12, T = 2771.38, p = 202650, H2 = 0.000775034
ExecutionTime = 38.02 s  ClockTime = 39 s

deltaT = 0.0005
Time = 0.207

Qdot = 2.04646e-12, T = 2771.38, p = 202650, H2 = 0.000775034
ExecutionTime = 38.02 s  ClockTime = 39 s

deltaT = 0.0005
Time = 0.2075

Qdot = -2.04646e-12, T = 2771.38, p = 202650, H2 = 0.000775034
ExecutionTime = 38.02 s  ClockTime = 39 s

deltaT = 0.0005
Time = 0.208

Qdot = 2.04646e-12, T = 2771.38, p = 202650, H2 = 0.000775034
ExecutionTime = 38.03 s  ClockTime = 39 s

deltaT = 0.0005
Time = 0.2085

Qdot = -2.04646e-12, T = 2771.38, p = 202650, H2 = 0.000775034
ExecutionTime = 38.03 s  ClockTime = 39 s

deltaT = 0.0005
Time = 0.209

Qdot = -1.92017e-08, T = 2771.38, p = 202650, H2 = 0.000775034
ExecutionTime = 38.03 s  ClockTime = 39 s

deltaT = 0.0005
Time = 0.2095

Qdot = -2.04646e-12, T = 2771.38, p = 202650, H2 = 0.000775034
ExecutionTime = 38.04 s  ClockTime = 39 s

deltaT = 0.0005
Time = 0.21

Qdot = 2.04646e-12, T = 2771.38, p = 202650, H2 = 0.000775034
ExecutionTime = 38.04 s  ClockTime = 39 s

deltaT = 0.0005
Time = 0.2105

Qdot = -2.04646e-12, T = 2771.38, p = 202650, H2 = 0.000775034
ExecutionTime = 38.04 s  ClockTime = 39 s

deltaT = 0.0005
Time = 0.211

Qdot = 2.04646e-12, T = 2771.38, p = 202650, H2 = 0.000775034
ExecutionTime = 38.04 s  ClockTime = 39 s

deltaT = 0.0005
Time = 0.2115

Qdot = -2.04646e-12, T = 2771.38, p = 202650, H2 = 0.000775034
ExecutionTime = 38.04 s  ClockTime = 39 s

deltaT = 0.0005
Time = 0.212

Qdot = 2.04646e-12, T = 2771.38, p = 202650, H2 = 0.000775034
ExecutionTime = 38.04 s  ClockTime = 39 s

deltaT = 0.0005
Time = 0.2125

Qdot = -2.04646e-12, T = 2771.38, p = 202650, H2 = 0.000775034
ExecutionTime = 38.04 s  ClockTime = 39 s

deltaT = 0.0005
Time = 0.213

Qdot = 2.04646e-12, T = 2771.38, p = 202650, H2 = 0.000775034
ExecutionTime = 38.04 s  ClockTime = 39 s

deltaT = 0.0005
Time = 0.2135

Qdot = -2.04646e-12, T = 2771.38, p = 202650, H2 = 0.000775034
ExecutionTime = 38.04 s  ClockTime = 39 s

deltaT = 0.0005
Time = 0.214

Qdot = 2.04646e-12, T = 2771.38, p = 202650, H2 = 0.000775034
ExecutionTime = 38.05 s  ClockTime = 39 s

deltaT = 0.0005
Time = 0.2145

Qdot = -2.04646e-12, T = 2771.38, p = 202650, H2 = 0.000775034
ExecutionTime = 38.05 s  ClockTime = 39 s

deltaT = 0.0005
Time = 0.215

Qdot = 2.04646e-12, T = 2771.38, p = 202650, H2 = 0.000775034
ExecutionTime = 38.05 s  ClockTime = 39 s

deltaT = 0.0005
Time = 0.2155

Qdot = -2.04646e-12, T = 2771.38, p = 202650, H2 = 0.000775034
ExecutionTime = 38.05 s  ClockTime = 39 s

deltaT = 0.0005
Time = 0.216

Qdot = 2.04646e-12, T = 2771.38, p = 202650, H2 = 0.000775034
ExecutionTime = 38.05 s  ClockTime = 39 s

deltaT = 0.0005
Time = 0.2165

Qdot = -2.04646e-12, T = 2771.38, p = 202650, H2 = 0.000775034
ExecutionTime = 38.05 s  ClockTime = 39 s

deltaT = 0.0005
Time = 0.217

Qdot = 2.04646e-12, T = 2771.38, p = 202650, H2 = 0.000775034
ExecutionTime = 38.05 s  ClockTime = 39 s

deltaT = 0.0005
Time = 0.2175

Qdot = -2.04646e-12, T = 2771.38, p = 202650, H2 = 0.000775034
ExecutionTime = 38.05 s  ClockTime = 39 s

deltaT = 0.0005
Time = 0.218

Qdot = 2.04646e-12, T = 2771.38, p = 202650, H2 = 0.000775034
ExecutionTime = 38.05 s  ClockTime = 39 s

deltaT = 0.0005
Time = 0.2185

Qdot = -2.04646e-12, T = 2771.38, p = 202650, H2 = 0.000775034
ExecutionTime = 38.06 s  ClockTime = 39 s

deltaT = 0.0005
Time = 0.219

Qdot = 2.04646e-12, T = 2771.38, p = 202650, H2 = 0.000775034
ExecutionTime = 38.06 s  ClockTime = 39 s

deltaT = 0.0005
Time = 0.2195

Qdot = -2.04646e-12, T = 2771.38, p = 202650, H2 = 0.000775034
ExecutionTime = 38.06 s  ClockTime = 39 s

deltaT = 0.0005
Time = 0.22

Qdot = 2.04646e-12, T = 2771.38, p = 202650, H2 = 0.000775034
ExecutionTime = 38.06 s  ClockTime = 39 s

deltaT = 0.0005
Time = 0.2205

Qdot = -2.04646e-12, T = 2771.38, p = 202650, H2 = 0.000775034
ExecutionTime = 38.06 s  ClockTime = 39 s

deltaT = 0.0005
Time = 0.221

Qdot = 2.04646e-12, T = 2771.38, p = 202650, H2 = 0.000775034
ExecutionTime = 38.06 s  ClockTime = 39 s

deltaT = 0.0005
Time = 0.2215

Qdot = -2.04646e-12, T = 2771.38, p = 202650, H2 = 0.000775034
ExecutionTime = 38.07 s  ClockTime = 39 s

deltaT = 0.0005
Time = 0.222

Qdot = 2.04646e-12, T = 2771.38, p = 202650, H2 = 0.000775034
ExecutionTime = 38.07 s  ClockTime = 39 s

deltaT = 0.0005
Time = 0.2225

Qdot = -2.04646e-12, T = 2771.38, p = 202650, H2 = 0.000775034
ExecutionTime = 38.07 s  ClockTime = 39 s

deltaT = 0.0005
Time = 0.223

Qdot = 2.04646e-12, T = 2771.38, p = 202650, H2 = 0.000775034
ExecutionTime = 38.08 s  ClockTime = 39 s

deltaT = 0.0005
Time = 0.2235

Qdot = -2.04646e-12, T = 2771.38, p = 202650, H2 = 0.000775034
ExecutionTime = 38.08 s  ClockTime = 39 s

deltaT = 0.0005
Time = 0.224

Qdot = 2.04646e-12, T = 2771.38, p = 202650, H2 = 0.000775034
ExecutionTime = 38.08 s  ClockTime = 39 s

deltaT = 0.0005
Time = 0.2245

Qdot = -2.04646e-12, T = 2771.38, p = 202650, H2 = 0.000775034
ExecutionTime = 38.08 s  ClockTime = 39 s

deltaT = 0.0005
Time = 0.225

Qdot = 2.04646e-12, T = 2771.38, p = 202650, H2 = 0.000775034
ExecutionTime = 38.08 s  ClockTime = 39 s

deltaT = 0.0005
Time = 0.2255

Qdot = -2.04646e-12, T = 2771.38, p = 202650, H2 = 0.000775034
ExecutionTime = 38.08 s  ClockTime = 39 s

deltaT = 0.0005
Time = 0.226

Qdot = 2.04646e-12, T = 2771.38, p = 202650, H2 = 0.000775034
ExecutionTime = 38.08 s  ClockTime = 39 s

deltaT = 0.0005
Time = 0.2265

Qdot = -2.04646e-12, T = 2771.38, p = 202650, H2 = 0.000775034
ExecutionTime = 38.08 s  ClockTime = 39 s

deltaT = 0.0005
Time = 0.227

Qdot = 2.04646e-12, T = 2771.38, p = 202650, H2 = 0.000775034
ExecutionTime = 38.08 s  ClockTime = 39 s

deltaT = 0.0005
Time = 0.2275

Qdot = -2.04646e-12, T = 2771.38, p = 202650, H2 = 0.000775034
ExecutionTime = 38.08 s  ClockTime = 39 s

deltaT = 0.0005
Time = 0.228

Qdot = 2.04646e-12, T = 2771.38, p = 202650, H2 = 0.000775034
ExecutionTime = 38.09 s  ClockTime = 39 s

deltaT = 0.0005
Time = 0.2285

Qdot = -2.04646e-12, T = 2771.38, p = 202650, H2 = 0.000775034
ExecutionTime = 38.09 s  ClockTime = 39 s

deltaT = 0.0005
Time = 0.229

Qdot = 2.04646e-12, T = 2771.38, p = 202650, H2 = 0.000775034
ExecutionTime = 38.09 s  ClockTime = 39 s

deltaT = 0.0005
Time = 0.2295

Qdot = -2.04646e-12, T = 2771.38, p = 202650, H2 = 0.000775034
ExecutionTime = 38.09 s  ClockTime = 39 s

deltaT = 0.0005
Time = 0.23

Qdot = 2.04646e-12, T = 2771.38, p = 202650, H2 = 0.000775034
ExecutionTime = 38.09 s  ClockTime = 39 s

deltaT = 0.0005
Time = 0.2305

Qdot = -2.04646e-12, T = 2771.38, p = 202650, H2 = 0.000775034
ExecutionTime = 38.09 s  ClockTime = 39 s

deltaT = 0.0005
Time = 0.231

Qdot = 2.04646e-12, T = 2771.38, p = 202650, H2 = 0.000775034
ExecutionTime = 38.09 s  ClockTime = 39 s

deltaT = 0.0005
Time = 0.2315

Qdot = -2.04646e-12, T = 2771.38, p = 202650, H2 = 0.000775034
ExecutionTime = 38.09 s  ClockTime = 39 s

deltaT = 0.0005
Time = 0.232

Qdot = 2.04646e-12, T = 2771.38, p = 202650, H2 = 0.000775034
ExecutionTime = 38.09 s  ClockTime = 39 s

deltaT = 0.0005
Time = 0.2325

Qdot = -2.04646e-12, T = 2771.38, p = 202650, H2 = 0.000775034
ExecutionTime = 38.1 s  ClockTime = 39 s

deltaT = 0.0005
Time = 0.233

Qdot = 2.04646e-12, T = 2771.38, p = 202650, H2 = 0.000775034
ExecutionTime = 38.1 s  ClockTime = 39 s

deltaT = 0.0005
Time = 0.2335

Qdot = -2.04646e-12, T = 2771.38, p = 202650, H2 = 0.000775034
ExecutionTime = 38.1 s  ClockTime = 39 s

deltaT = 0.0005
Time = 0.234

Qdot = 2.04646e-12, T = 2771.38, p = 202650, H2 = 0.000775034
ExecutionTime = 38.11 s  ClockTime = 39 s

deltaT = 0.0005
Time = 0.2345

Qdot = -2.04646e-12, T = 2771.38, p = 202650, H2 = 0.000775034
ExecutionTime = 38.11 s  ClockTime = 39 s

deltaT = 0.0005
Time = 0.235

Qdot = 2.04646e-12, T = 2771.38, p = 202650, H2 = 0.000775034
ExecutionTime = 38.11 s  ClockTime = 39 s

deltaT = 0.0005
Time = 0.2355

Qdot = -2.04646e-12, T = 2771.38, p = 202650, H2 = 0.000775034
ExecutionTime = 38.11 s  ClockTime = 39 s

deltaT = 0.0005
Time = 0.236

Qdot = 2.04646e-12, T = 2771.38, p = 202650, H2 = 0.000775034
ExecutionTime = 38.11 s  ClockTime = 39 s

deltaT = 0.0005
Time = 0.2365

Qdot = -2.04646e-12, T = 2771.38, p = 202650, H2 = 0.000775034
ExecutionTime = 38.11 s  ClockTime = 39 s

deltaT = 0.0005
Time = 0.237

Qdot = 2.04646e-12, T = 2771.38, p = 202650, H2 = 0.000775034
ExecutionTime = 38.11 s  ClockTime = 39 s

deltaT = 0.0005
Time = 0.2375

Qdot = -2.04646e-12, T = 2771.38, p = 202650, H2 = 0.000775034
ExecutionTime = 38.11 s  ClockTime = 39 s

deltaT = 0.0005
Time = 0.238

Qdot = 2.04646e-12, T = 2771.38, p = 202650, H2 = 0.000775034
ExecutionTime = 38.11 s  ClockTime = 39 s

deltaT = 0.0005
Time = 0.2385

Qdot = -2.04646e-12, T = 2771.38, p = 202650, H2 = 0.000775034
ExecutionTime = 38.11 s  ClockTime = 39 s

deltaT = 0.0005
Time = 0.239

Qdot = 2.04646e-12, T = 2771.38, p = 202650, H2 = 0.000775034
ExecutionTime = 38.12 s  ClockTime = 39 s

deltaT = 0.0005
Time = 0.2395

Qdot = -2.04646e-12, T = 2771.38, p = 202650, H2 = 0.000775034
ExecutionTime = 38.12 s  ClockTime = 39 s

deltaT = 0.0005
Time = 0.24

Qdot = 2.04646e-12, T = 2771.38, p = 202650, H2 = 0.000775034
ExecutionTime = 38.13 s  ClockTime = 39 s

deltaT = 0.0005
Time = 0.2405

Qdot = -1.9214e-08, T = 2771.38, p = 202650, H2 = 0.000775034
ExecutionTime = 38.13 s  ClockTime = 39 s

deltaT = 0.0005
Time = 0.241

Qdot = 2.04646e-12, T = 2771.38, p = 202650, H2 = 0.000775034
ExecutionTime = 38.13 s  ClockTime = 39 s

deltaT = 0.0005
Time = 0.2415

Qdot = -2.04646e-12, T = 2771.38, p = 202650, H2 = 0.000775034
ExecutionTime = 38.13 s  ClockTime = 39 s

deltaT = 0.0005
Time = 0.242

Qdot = 2.04646e-12, T = 2771.38, p = 202650, H2 = 0.000775034
ExecutionTime = 38.13 s  ClockTime = 39 s

deltaT = 0.0005
Time = 0.2425

Qdot = -2.04646e-12, T = 2771.38, p = 202650, H2 = 0.000775034
ExecutionTime = 38.13 s  ClockTime = 39 s

deltaT = 0.0005
Time = 0.243

Qdot = 2.04646e-12, T = 2771.38, p = 202650, H2 = 0.000775034
ExecutionTime = 38.13 s  ClockTime = 39 s

deltaT = 0.0005
Time = 0.2435

Qdot = -2.04646e-12, T = 2771.38, p = 202650, H2 = 0.000775034
ExecutionTime = 38.13 s  ClockTime = 39 s

deltaT = 0.0005
Time = 0.244

Qdot = 2.04646e-12, T = 2771.38, p = 202650, H2 = 0.000775034
ExecutionTime = 38.13 s  ClockTime = 39 s

deltaT = 0.0005
Time = 0.2445

Qdot = -2.04646e-12, T = 2771.38, p = 202650, H2 = 0.000775034
ExecutionTime = 38.13 s  ClockTime = 39 s

deltaT = 0.0005
Time = 0.245

Qdot = 2.04646e-12, T = 2771.38, p = 202650, H2 = 0.000775034
ExecutionTime = 38.14 s  ClockTime = 39 s

deltaT = 0.0005
Time = 0.2455

Qdot = -2.04646e-12, T = 2771.38, p = 202650, H2 = 0.000775034
ExecutionTime = 38.14 s  ClockTime = 39 s

deltaT = 0.0005
Time = 0.246

Qdot = 2.04646e-12, T = 2771.38, p = 202650, H2 = 0.000775034
ExecutionTime = 38.14 s  ClockTime = 39 s

deltaT = 0.0005
Time = 0.2465

Qdot = -2.04646e-12, T = 2771.38, p = 202650, H2 = 0.000775034
ExecutionTime = 38.14 s  ClockTime = 39 s

deltaT = 0.0005
Time = 0.247

Qdot = 2.04646e-12, T = 2771.38, p = 202650, H2 = 0.000775034
ExecutionTime = 38.14 s  ClockTime = 39 s

deltaT = 0.0005
Time = 0.2475

Qdot = -2.04646e-12, T = 2771.38, p = 202650, H2 = 0.000775034
ExecutionTime = 38.14 s  ClockTime = 39 s

deltaT = 0.0005
Time = 0.248

Qdot = 2.04646e-12, T = 2771.38, p = 202650, H2 = 0.000775034
ExecutionTime = 38.14 s  ClockTime = 39 s

deltaT = 0.0005
Time = 0.2485

Qdot = -2.04646e-12, T = 2771.38, p = 202650, H2 = 0.000775034
ExecutionTime = 38.14 s  ClockTime = 39 s

deltaT = 0.0005
Time = 0.249

Qdot = 2.04646e-12, T = 2771.38, p = 202650, H2 = 0.000775034
ExecutionTime = 38.14 s  ClockTime = 39 s

deltaT = 0.0005
Time = 0.2495

Qdot = -2.04646e-12, T = 2771.38, p = 202650, H2 = 0.000775034
ExecutionTime = 38.14 s  ClockTime = 39 s

deltaT = 0.0005
Time = 0.25

Qdot = 2.04646e-12, T = 2771.38, p = 202650, H2 = 0.000775034
ExecutionTime = 38.14 s  ClockTime = 39 s

deltaT = 0.0005
Time = 0.2505

Qdot = -2.04646e-12, T = 2771.38, p = 202650, H2 = 0.000775034
ExecutionTime = 38.16 s  ClockTime = 39 s

deltaT = 0.0005
Time = 0.251

Qdot = 2.04646e-12, T = 2771.38, p = 202650, H2 = 0.000775034
ExecutionTime = 38.16 s  ClockTime = 39 s

deltaT = 0.0005
Time = 0.2515

Qdot = -2.04646e-12, T = 2771.38, p = 202650, H2 = 0.000775034
ExecutionTime = 38.16 s  ClockTime = 39 s

deltaT = 0.0005
Time = 0.252

Qdot = 2.04646e-12, T = 2771.38, p = 202650, H2 = 0.000775034
ExecutionTime = 38.16 s  ClockTime = 39 s

deltaT = 0.0005
Time = 0.2525

Qdot = -2.04646e-12, T = 2771.38, p = 202650, H2 = 0.000775034
ExecutionTime = 38.16 s  ClockTime = 39 s

deltaT = 0.0005
Time = 0.253

Qdot = 2.04646e-12, T = 2771.38, p = 202650, H2 = 0.000775034
ExecutionTime = 38.16 s  ClockTime = 39 s

deltaT = 0.0005
Time = 0.2535

Qdot = -2.04646e-12, T = 2771.38, p = 202650, H2 = 0.000775034
ExecutionTime = 38.16 s  ClockTime = 39 s

deltaT = 0.0005
Time = 0.254

Qdot = 2.04646e-12, T = 2771.38, p = 202650, H2 = 0.000775034
ExecutionTime = 38.16 s  ClockTime = 39 s

deltaT = 0.0005
Time = 0.2545

Qdot = -2.04646e-12, T = 2771.38, p = 202650, H2 = 0.000775034
ExecutionTime = 38.17 s  ClockTime = 39 s

deltaT = 0.0005
Time = 0.255

Qdot = 2.04646e-12, T = 2771.38, p = 202650, H2 = 0.000775034
ExecutionTime = 38.17 s  ClockTime = 39 s

deltaT = 0.0005
Time = 0.2555

Qdot = -2.04646e-12, T = 2771.38, p = 202650, H2 = 0.000775034
ExecutionTime = 38.17 s  ClockTime = 39 s

deltaT = 0.0005
Time = 0.256

Qdot = 2.04646e-12, T = 2771.38, p = 202650, H2 = 0.000775034
ExecutionTime = 38.17 s  ClockTime = 39 s

deltaT = 0.0005
Time = 0.2565

Qdot = -2.04646e-12, T = 2771.38, p = 202650, H2 = 0.000775034
ExecutionTime = 38.17 s  ClockTime = 39 s

deltaT = 0.0005
Time = 0.257

Qdot = 2.04646e-12, T = 2771.38, p = 202650, H2 = 0.000775034
ExecutionTime = 38.17 s  ClockTime = 39 s

deltaT = 0.0005
Time = 0.2575

Qdot = -2.04646e-12, T = 2771.38, p = 202650, H2 = 0.000775034
ExecutionTime = 38.17 s  ClockTime = 39 s

deltaT = 0.0005
Time = 0.258

Qdot = 2.04646e-12, T = 2771.38, p = 202650, H2 = 0.000775034
ExecutionTime = 38.18 s  ClockTime = 39 s

deltaT = 0.0005
Time = 0.2585

Qdot = -2.04646e-12, T = 2771.38, p = 202650, H2 = 0.000775034
ExecutionTime = 38.18 s  ClockTime = 39 s

deltaT = 0.0005
Time = 0.259

Qdot = 2.04646e-12, T = 2771.38, p = 202650, H2 = 0.000775034
ExecutionTime = 38.18 s  ClockTime = 39 s

deltaT = 0.0005
Time = 0.2595

Qdot = -2.04646e-12, T = 2771.38, p = 202650, H2 = 0.000775034
ExecutionTime = 38.18 s  ClockTime = 39 s

deltaT = 0.0005
Time = 0.26

Qdot = 2.04646e-12, T = 2771.38, p = 202650, H2 = 0.000775034
ExecutionTime = 38.18 s  ClockTime = 39 s

deltaT = 0.0005
Time = 0.2605

Qdot = -2.04646e-12, T = 2771.38, p = 202650, H2 = 0.000775034
ExecutionTime = 38.18 s  ClockTime = 39 s

deltaT = 0.0005
Time = 0.261

Qdot = 2.04646e-12, T = 2771.38, p = 202650, H2 = 0.000775034
ExecutionTime = 38.18 s  ClockTime = 39 s

deltaT = 0.0005
Time = 0.2615

Qdot = -2.04646e-12, T = 2771.38, p = 202650, H2 = 0.000775034
ExecutionTime = 38.18 s  ClockTime = 39 s

deltaT = 0.0005
Time = 0.262

Qdot = 2.04646e-12, T = 2771.38, p = 202650, H2 = 0.000775034
ExecutionTime = 38.18 s  ClockTime = 39 s

deltaT = 0.0005
Time = 0.2625

Qdot = -2.04646e-12, T = 2771.38, p = 202650, H2 = 0.000775034
ExecutionTime = 38.19 s  ClockTime = 39 s

deltaT = 0.0005
Time = 0.263

Qdot = 2.04646e-12, T = 2771.38, p = 202650, H2 = 0.000775034
ExecutionTime = 38.19 s  ClockTime = 39 s

deltaT = 0.0005
Time = 0.2635

Qdot = -2.04646e-12, T = 2771.38, p = 202650, H2 = 0.000775034
ExecutionTime = 38.19 s  ClockTime = 39 s

deltaT = 0.0005
Time = 0.264

Qdot = 2.04646e-12, T = 2771.38, p = 202650, H2 = 0.000775034
ExecutionTime = 38.19 s  ClockTime = 39 s

deltaT = 0.0005
Time = 0.2645

Qdot = -2.04646e-12, T = 2771.38, p = 202650, H2 = 0.000775034
ExecutionTime = 38.19 s  ClockTime = 39 s

deltaT = 0.0005
Time = 0.265

Qdot = 2.04646e-12, T = 2771.38, p = 202650, H2 = 0.000775034
ExecutionTime = 38.19 s  ClockTime = 39 s

deltaT = 0.0005
Time = 0.2655

Qdot = -2.04646e-12, T = 2771.38, p = 202650, H2 = 0.000775034
ExecutionTime = 38.19 s  ClockTime = 39 s

deltaT = 0.0005
Time = 0.266

Qdot = 2.04646e-12, T = 2771.38, p = 202650, H2 = 0.000775034
ExecutionTime = 38.2 s  ClockTime = 39 s

deltaT = 0.0005
Time = 0.2665

Qdot = -2.04646e-12, T = 2771.38, p = 202650, H2 = 0.000775034
ExecutionTime = 38.2 s  ClockTime = 39 s

deltaT = 0.0005
Time = 0.267

Qdot = 2.04646e-12, T = 2771.38, p = 202650, H2 = 0.000775034
ExecutionTime = 38.2 s  ClockTime = 39 s

deltaT = 0.0005
Time = 0.2675

Qdot = -2.04646e-12, T = 2771.38, p = 202650, H2 = 0.000775034
ExecutionTime = 38.2 s  ClockTime = 39 s

deltaT = 0.0005
Time = 0.268

Qdot = 2.04646e-12, T = 2771.38, p = 202650, H2 = 0.000775034
ExecutionTime = 38.2 s  ClockTime = 39 s

deltaT = 0.0005
Time = 0.2685

Qdot = -2.04646e-12, T = 2771.38, p = 202650, H2 = 0.000775034
ExecutionTime = 38.21 s  ClockTime = 39 s

deltaT = 0.0005
Time = 0.269

Qdot = 2.04646e-12, T = 2771.38, p = 202650, H2 = 0.000775034
ExecutionTime = 38.21 s  ClockTime = 39 s

deltaT = 0.0005
Time = 0.2695

Qdot = -2.04646e-12, T = 2771.38, p = 202650, H2 = 0.000775034
ExecutionTime = 38.21 s  ClockTime = 39 s

deltaT = 0.0005
Time = 0.27

Qdot = 2.04646e-12, T = 2771.38, p = 202650, H2 = 0.000775034
ExecutionTime = 38.21 s  ClockTime = 39 s

deltaT = 0.0005
Time = 0.2705

Qdot = -2.04646e-12, T = 2771.38, p = 202650, H2 = 0.000775034
ExecutionTime = 38.21 s  ClockTime = 39 s

deltaT = 0.0005
Time = 0.271

Qdot = 2.04646e-12, T = 2771.38, p = 202650, H2 = 0.000775034
ExecutionTime = 38.21 s  ClockTime = 39 s

deltaT = 0.0005
Time = 0.2715

Qdot = -2.04646e-12, T = 2771.38, p = 202650, H2 = 0.000775034
ExecutionTime = 38.21 s  ClockTime = 39 s

deltaT = 0.0005
Time = 0.272

Qdot = 2.04646e-12, T = 2771.38, p = 202650, H2 = 0.000775034
ExecutionTime = 38.21 s  ClockTime = 39 s

deltaT = 0.0005
Time = 0.2725

Qdot = -2.04646e-12, T = 2771.38, p = 202650, H2 = 0.000775034
ExecutionTime = 38.21 s  ClockTime = 39 s

deltaT = 0.0005
Time = 0.273

Qdot = 2.04646e-12, T = 2771.38, p = 202650, H2 = 0.000775034
ExecutionTime = 38.21 s  ClockTime = 39 s

deltaT = 0.0005
Time = 0.2735

Qdot = -2.04646e-12, T = 2771.38, p = 202650, H2 = 0.000775034
ExecutionTime = 38.21 s  ClockTime = 39 s

deltaT = 0.0005
Time = 0.274

Qdot = 2.04646e-12, T = 2771.38, p = 202650, H2 = 0.000775034
ExecutionTime = 38.21 s  ClockTime = 39 s

deltaT = 0.0005
Time = 0.2745

Qdot = -2.04646e-12, T = 2771.38, p = 202650, H2 = 0.000775034
ExecutionTime = 38.21 s  ClockTime = 39 s

deltaT = 0.0005
Time = 0.275

Qdot = 2.04646e-12, T = 2771.38, p = 202650, H2 = 0.000775034
ExecutionTime = 38.21 s  ClockTime = 39 s

deltaT = 0.0005
Time = 0.2755

Qdot = -2.04646e-12, T = 2771.38, p = 202650, H2 = 0.000775034
ExecutionTime = 38.22 s  ClockTime = 39 s

deltaT = 0.0005
Time = 0.276

Qdot = 2.04646e-12, T = 2771.38, p = 202650, H2 = 0.000775034
ExecutionTime = 38.22 s  ClockTime = 39 s

deltaT = 0.0005
Time = 0.2765

Qdot = -2.04646e-12, T = 2771.38, p = 202650, H2 = 0.000775034
ExecutionTime = 38.23 s  ClockTime = 39 s

deltaT = 0.0005
Time = 0.277

Qdot = 2.04646e-12, T = 2771.38, p = 202650, H2 = 0.000775034
ExecutionTime = 38.23 s  ClockTime = 39 s

deltaT = 0.0005
Time = 0.2775

Qdot = -2.04646e-12, T = 2771.38, p = 202650, H2 = 0.000775034
ExecutionTime = 38.23 s  ClockTime = 39 s

deltaT = 0.0005
Time = 0.278

Qdot = 2.04646e-12, T = 2771.38, p = 202650, H2 = 0.000775034
ExecutionTime = 38.23 s  ClockTime = 39 s

deltaT = 0.0005
Time = 0.2785

Qdot = -2.04646e-12, T = 2771.38, p = 202650, H2 = 0.000775034
ExecutionTime = 38.23 s  ClockTime = 39 s

[...]
Time = 2.216

Qdot = -7.59666e-09, T = 2771.38, p = 202650, H2 = 0.000775034
ExecutionTime = 43.7 s  ClockTime = 47 s

deltaT = 0.0005
Time = 2.2165

Qdot = 2.30483e-08, T = 2771.38, p = 202650, H2 = 0.000775034
ExecutionTime = 43.7 s  ClockTime = 47 s

deltaT = 0.0005
Time = 2.217

Qdot = -8.25279e-08, T = 2771.38, p = 202650, H2 = 0.000775034
ExecutionTime = 43.7 s  ClockTime = 47 s

deltaT = 0.0005
Time = 2.2175

Qdot = 2.01461e-07, T = 2771.38, p = 202650, H2 = 0.000775034
ExecutionTime = 43.7 s  ClockTime = 47 s

deltaT = 0.0005
Time = 2.218

Qdot = -2.49081e-08, T = 2771.38, p = 202650, H2 = 0.000775034
ExecutionTime = 43.7 s  ClockTime = 47 s

deltaT = 0.0005
Time = 2.2185

Qdot = -1.88039e-07, T = 2771.38, p = 202650, H2 = 0.000775034
ExecutionTime = 43.7 s  ClockTime = 47 s

deltaT = 0.0005
Time = 2.219

Qdot = 1.09379e-07, T = 2771.38, p = 202650, H2 = 0.000775034
ExecutionTime = 43.7 s  ClockTime = 47 s

deltaT = 0.0005
Time = 2.2195

Qdot = -9.59531e-08, T = 2771.38, p = 202650, H2 = 0.000775034
ExecutionTime = 43.7 s  ClockTime = 47 s

deltaT = 0.0005
Time = 2.22

Qdot = 1.88037e-07, T = 2771.38, p = 202650, H2 = 0.000775034
ExecutionTime = 43.71 s  ClockTime = 47 s

deltaT = 0.0005
Time = 2.2205

Qdot = -2.49081e-08, T = 2771.38, p = 202650, H2 = 0.000775034
ExecutionTime = 43.71 s  ClockTime = 47 s

deltaT = 0.0005
Time = 2.221

Qdot = -1.88039e-07, T = 2771.38, p = 202650, H2 = 0.000775034
ExecutionTime = 43.71 s  ClockTime = 47 s

deltaT = 0.0005
Time = 2.2215

Qdot = 1.09379e-07, T = 2771.38, p = 202650, H2 = 0.000775034
ExecutionTime = 43.71 s  ClockTime = 47 s

deltaT = 0.0005
Time = 2.222

Qdot = 1.57318e-07, T = 2771.38, p = 202650, H2 = 0.000775034
ExecutionTime = 43.72 s  ClockTime = 47 s

deltaT = 0.0005
Time = 2.2225

Qdot = -1.97586e-07, T = 2771.38, p = 202650, H2 = 0.000775034
ExecutionTime = 43.72 s  ClockTime = 47 s

deltaT = 0.0005
Time = 2.223

Qdot = 2.01461e-07, T = 2771.38, p = 202650, H2 = 0.000775034
ExecutionTime = 43.72 s  ClockTime = 47 s

deltaT = 0.0005
Time = 2.2235

Qdot = -7.29912e-08, T = 2771.38, p = 202650, H2 = 0.000775034
ExecutionTime = 43.72 s  ClockTime = 47 s

deltaT = 0.0005
Time = 2.224

Qdot = -7.59666e-09, T = 2771.38, p = 202650, H2 = 0.000775034
ExecutionTime = 43.72 s  ClockTime = 47 s

deltaT = 0.0005
Time = 2.2245

Qdot = 2.30483e-08, T = 2771.38, p = 202650, H2 = 0.000775034
ExecutionTime = 43.72 s  ClockTime = 47 s

deltaT = 0.0005
Time = 2.225

Qdot = -8.25279e-08, T = 2771.38, p = 202650, H2 = 0.000775034
ExecutionTime = 43.72 s  ClockTime = 47 s

deltaT = 0.0005
Time = 2.2255

Qdot = 2.01461e-07, T = 2771.38, p = 202650, H2 = 0.000775034
ExecutionTime = 43.72 s  ClockTime = 47 s

deltaT = 0.0005
Time = 2.226

Qdot = -2.49081e-08, T = 2771.38, p = 202650, H2 = 0.000775034
ExecutionTime = 43.72 s  ClockTime = 47 s

deltaT = 0.0005
Time = 2.2265

Qdot = -1.88039e-07, T = 2771.38, p = 202650, H2 = 0.000775034
ExecutionTime = 43.73 s  ClockTime = 47 s

deltaT = 0.0005
Time = 2.227

Qdot = 1.09379e-07, T = 2771.38, p = 202650, H2 = 0.000775034
ExecutionTime = 43.74 s  ClockTime = 47 s

deltaT = 0.0005
Time = 2.2275

Qdot = -9.59531e-08, T = 2771.38, p = 202650, H2 = 0.000775034
ExecutionTime = 43.74 s  ClockTime = 47 s

deltaT = 0.0005
Time = 2.228

Qdot = 1.88037e-07, T = 2771.38, p = 202650, H2 = 0.000775034
ExecutionTime = 43.74 s  ClockTime = 47 s

deltaT = 0.0005
Time = 2.2285

Qdot = -2.49081e-08, T = 2771.38, p = 202650, H2 = 0.000775034
ExecutionTime = 43.74 s  ClockTime = 47 s

deltaT = 0.0005
Time = 2.229

Qdot = -1.88039e-07, T = 2771.38, p = 202650, H2 = 0.000775034
ExecutionTime = 43.74 s  ClockTime = 47 s

deltaT = 0.0005
Time = 2.2295

Qdot = 1.09379e-07, T = 2771.38, p = 202650, H2 = 0.000775034
ExecutionTime = 43.74 s  ClockTime = 47 s

deltaT = 0.0005
Time = 2.23

Qdot = 1.57318e-07, T = 2771.38, p = 202650, H2 = 0.000775034
ExecutionTime = 43.74 s  ClockTime = 47 s

deltaT = 0.0005
Time = 2.2305

Qdot = -1.97586e-07, T = 2771.38, p = 202650, H2 = 0.000775034
ExecutionTime = 43.74 s  ClockTime = 47 s

deltaT = 0.0005
Time = 2.231

Qdot = 2.01461e-07, T = 2771.38, p = 202650, H2 = 0.000775034
ExecutionTime = 43.74 s  ClockTime = 47 s

deltaT = 0.0005
Time = 2.2315

Qdot = -7.29912e-08, T = 2771.38, p = 202650, H2 = 0.000775034
ExecutionTime = 43.75 s  ClockTime = 47 s

deltaT = 0.0005
Time = 2.232

Qdot = -7.59666e-09, T = 2771.38, p = 202650, H2 = 0.000775034
ExecutionTime = 43.75 s  ClockTime = 47 s

deltaT = 0.0005
Time = 2.2325

Qdot = 2.30483e-08, T = 2771.38, p = 202650, H2 = 0.000775034
ExecutionTime = 43.75 s  ClockTime = 47 s

deltaT = 0.0005
Time = 2.233

Qdot = -8.25279e-08, T = 2771.38, p = 202650, H2 = 0.000775034
ExecutionTime = 43.75 s  ClockTime = 47 s

deltaT = 0.0005
Time = 2.2335

Qdot = 2.01461e-07, T = 2771.38, p = 202650, H2 = 0.000775034
ExecutionTime = 43.76 s  ClockTime = 47 s

deltaT = 0.0005
Time = 2.234

Qdot = -2.49081e-08, T = 2771.38, p = 202650, H2 = 0.000775034
ExecutionTime = 43.76 s  ClockTime = 47 s

deltaT = 0.0005
Time = 2.2345

Qdot = -1.88039e-07, T = 2771.38, p = 202650, H2 = 0.000775034
ExecutionTime = 43.76 s  ClockTime = 47 s

deltaT = 0.0005
Time = 2.235

Qdot = 1.09379e-07, T = 2771.38, p = 202650, H2 = 0.000775034
ExecutionTime = 43.76 s  ClockTime = 47 s

deltaT = 0.0005
Time = 2.2355

Qdot = -9.59531e-08, T = 2771.38, p = 202650, H2 = 0.000775034
ExecutionTime = 43.76 s  ClockTime = 47 s

deltaT = 0.0005
Time = 2.236

Qdot = 1.88037e-07, T = 2771.38, p = 202650, H2 = 0.000775034
ExecutionTime = 43.76 s  ClockTime = 47 s

deltaT = 0.0005
Time = 2.2365

Qdot = -2.49081e-08, T = 2771.38, p = 202650, H2 = 0.000775034
ExecutionTime = 43.76 s  ClockTime = 47 s

deltaT = 0.0005
Time = 2.237

Qdot = -1.88039e-07, T = 2771.38, p = 202650, H2 = 0.000775034
ExecutionTime = 43.76 s  ClockTime = 47 s

deltaT = 0.0005
Time = 2.2375

Qdot = 1.09379e-07, T = 2771.38, p = 202650, H2 = 0.000775034
ExecutionTime = 43.76 s  ClockTime = 47 s

deltaT = 0.0005
Time = 2.238

Qdot = 1.57318e-07, T = 2771.38, p = 202650, H2 = 0.000775034
ExecutionTime = 43.76 s  ClockTime = 47 s

deltaT = 0.0005
Time = 2.2385

Qdot = -1.97586e-07, T = 2771.38, p = 202650, H2 = 0.000775034
ExecutionTime = 43.76 s  ClockTime = 47 s

deltaT = 0.0005
Time = 2.239

Qdot = 2.01461e-07, T = 2771.38, p = 202650, H2 = 0.000775034
ExecutionTime = 43.76 s  ClockTime = 47 s

deltaT = 0.0005
Time = 2.2395

Qdot = -7.29912e-08, T = 2771.38, p = 202650, H2 = 0.000775034
ExecutionTime = 43.76 s  ClockTime = 47 s

deltaT = 0.0005
Time = 2.24

Qdot = -7.59666e-09, T = 2771.38, p = 202650, H2 = 0.000775034
ExecutionTime = 43.77 s  ClockTime = 47 s

deltaT = 0.0005
Time = 2.2405

Qdot = 2.30483e-08, T = 2771.38, p = 202650, H2 = 0.000775034
ExecutionTime = 43.77 s  ClockTime = 47 s

deltaT = 0.0005
Time = 2.241

Qdot = -8.25279e-08, T = 2771.38, p = 202650, H2 = 0.000775034
ExecutionTime = 43.77 s  ClockTime = 47 s

deltaT = 0.0005
Time = 2.2415

Qdot = 2.01461e-07, T = 2771.38, p = 202650, H2 = 0.000775034
ExecutionTime = 43.78 s  ClockTime = 47 s

deltaT = 0.0005
Time = 2.242

Qdot = -7.29912e-08, T = 2771.38, p = 202650, H2 = 0.000775034
ExecutionTime = 43.78 s  ClockTime = 47 s

deltaT = 0.0005
Time = 2.2425

Qdot = -7.59666e-09, T = 2771.38, p = 202650, H2 = 0.000775034
ExecutionTime = 43.78 s  ClockTime = 47 s

deltaT = 0.0005
Time = 2.243

Qdot = 2.30483e-08, T = 2771.38, p = 202650, H2 = 0.000775034
ExecutionTime = 43.78 s  ClockTime = 47 s

deltaT = 0.0005
Time = 2.2435

Qdot = -8.25279e-08, T = 2771.38, p = 202650, H2 = 0.000775034
ExecutionTime = 43.78 s  ClockTime = 47 s

deltaT = 0.0005
Time = 2.244

Qdot = 2.01461e-07, T = 2771.38, p = 202650, H2 = 0.000775034
ExecutionTime = 43.78 s  ClockTime = 47 s

deltaT = 0.0005
Time = 2.2445

Qdot = -2.49081e-08, T = 2771.38, p = 202650, H2 = 0.000775034
ExecutionTime = 43.78 s  ClockTime = 47 s

deltaT = 0.0005
Time = 2.245

Qdot = -1.88039e-07, T = 2771.38, p = 202650, H2 = 0.000775034
ExecutionTime = 43.78 s  ClockTime = 47 s

deltaT = 0.0005
Time = 2.2455

Qdot = 1.09379e-07, T = 2771.38, p = 202650, H2 = 0.000775034
ExecutionTime = 43.78 s  ClockTime = 47 s

deltaT = 0.0005
Time = 2.246

Qdot = -9.59531e-08, T = 2771.38, p = 202650, H2 = 0.000775034
ExecutionTime = 43.78 s  ClockTime = 47 s

deltaT = 0.0005
Time = 2.2465

Qdot = 1.88037e-07, T = 2771.38, p = 202650, H2 = 0.000775034
ExecutionTime = 43.79 s  ClockTime = 47 s

deltaT = 0.0005
Time = 2.247

Qdot = -2.49081e-08, T = 2771.38, p = 202650, H2 = 0.000775034
ExecutionTime = 43.79 s  ClockTime = 47 s

deltaT = 0.0005
Time = 2.2475

Qdot = -1.88039e-07, T = 2771.38, p = 202650, H2 = 0.000775034
ExecutionTime = 43.79 s  ClockTime = 47 s

deltaT = 0.0005
Time = 2.248

Qdot = 1.09379e-07, T = 2771.38, p = 202650, H2 = 0.000775034
ExecutionTime = 43.79 s  ClockTime = 47 s

deltaT = 0.0005
Time = 2.2485

Qdot = 1.57318e-07, T = 2771.38, p = 202650, H2 = 0.000775034
ExecutionTime = 43.79 s  ClockTime = 47 s

deltaT = 0.0005
Time = 2.249

Qdot = -1.97586e-07, T = 2771.38, p = 202650, H2 = 0.000775034
ExecutionTime = 43.79 s  ClockTime = 47 s

deltaT = 0.0005
Time = 2.2495

Qdot = 2.01461e-07, T = 2771.38, p = 202650, H2 = 0.000775034
ExecutionTime = 43.79 s  ClockTime = 47 s

deltaT = 0.0005
Time = 2.25

Qdot = -7.29912e-08, T = 2771.38, p = 202650, H2 = 0.000775034
ExecutionTime = 43.8 s  ClockTime = 47 s

deltaT = 0.0005
Time = 2.2505

Qdot = -7.59666e-09, T = 2771.38, p = 202650, H2 = 0.000775034
ExecutionTime = 43.8 s  ClockTime = 47 s

deltaT = 0.0005
Time = 2.251

Qdot = 2.30483e-08, T = 2771.38, p = 202650, H2 = 0.000775034
ExecutionTime = 43.81 s  ClockTime = 47 s

deltaT = 0.0005
Time = 2.2515

Qdot = -8.25279e-08, T = 2771.38, p = 202650, H2 = 0.000775034
ExecutionTime = 43.81 s  ClockTime = 47 s

deltaT = 0.0005
Time = 2.252

Qdot = 2.01461e-07, T = 2771.38, p = 202650, H2 = 0.000775034
ExecutionTime = 43.81 s  ClockTime = 47 s

deltaT = 0.0005
Time = 2.2525

Qdot = -2.49081e-08, T = 2771.38, p = 202650, H2 = 0.000775034
ExecutionTime = 43.81 s  ClockTime = 47 s

deltaT = 0.0005
Time = 2.253

Qdot = -1.88039e-07, T = 2771.38, p = 202650, H2 = 0.000775034
ExecutionTime = 43.81 s  ClockTime = 47 s

deltaT = 0.0005
Time = 2.2535

Qdot = 1.09379e-07, T = 2771.38, p = 202650, H2 = 0.000775034
ExecutionTime = 43.81 s  ClockTime = 47 s

deltaT = 0.0005
Time = 2.254

Qdot = -9.59531e-08, T = 2771.38, p = 202650, H2 = 0.000775034
ExecutionTime = 43.82 s  ClockTime = 47 s

deltaT = 0.0005
Time = 2.2545

Qdot = 1.88037e-07, T = 2771.38, p = 202650, H2 = 0.000775034
ExecutionTime = 43.82 s  ClockTime = 47 s

deltaT = 0.0005
Time = 2.255

Qdot = -2.49081e-08, T = 2771.38, p = 202650, H2 = 0.000775034
ExecutionTime = 43.82 s  ClockTime = 47 s

deltaT = 0.0005
Time = 2.2555

Qdot = -1.88039e-07, T = 2771.38, p = 202650, H2 = 0.000775034
ExecutionTime = 43.82 s  ClockTime = 47 s

deltaT = 0.0005
Time = 2.256

Qdot = 1.09379e-07, T = 2771.38, p = 202650, H2 = 0.000775034
ExecutionTime = 43.82 s  ClockTime = 47 s

deltaT = 0.0005
Time = 2.2565

Qdot = 1.57318e-07, T = 2771.38, p = 202650, H2 = 0.000775034
ExecutionTime = 43.82 s  ClockTime = 47 s

deltaT = 0.0005
Time = 2.257

Qdot = -1.97586e-07, T = 2771.38, p = 202650, H2 = 0.000775034
ExecutionTime = 43.82 s  ClockTime = 47 s

deltaT = 0.0005
Time = 2.2575

Qdot = 2.01461e-07, T = 2771.38, p = 202650, H2 = 0.000775034
ExecutionTime = 43.82 s  ClockTime = 47 s

deltaT = 0.0005
Time = 2.258

Qdot = -7.29912e-08, T = 2771.38, p = 202650, H2 = 0.000775034
ExecutionTime = 43.83 s  ClockTime = 47 s

deltaT = 0.0005
Time = 2.2585

Qdot = -7.59666e-09, T = 2771.38, p = 202650, H2 = 0.000775034
ExecutionTime = 43.83 s  ClockTime = 47 s

deltaT = 0.0005
Time = 2.259

Qdot = 2.30483e-08, T = 2771.38, p = 202650, H2 = 0.000775034
ExecutionTime = 43.83 s  ClockTime = 47 s

deltaT = 0.0005
Time = 2.2595

Qdot = -8.25279e-08, T = 2771.38, p = 202650, H2 = 0.000775034
ExecutionTime = 43.83 s  ClockTime = 47 s

deltaT = 0.0005
Time = 2.26

Qdot = 2.01461e-07, T = 2771.38, p = 202650, H2 = 0.000775034
ExecutionTime = 43.83 s  ClockTime = 47 s

deltaT = 0.0005
Time = 2.2605

Qdot = -2.49081e-08, T = 2771.38, p = 202650, H2 = 0.000775034
ExecutionTime = 43.83 s  ClockTime = 47 s

deltaT = 0.0005
Time = 2.261

Qdot = -1.88039e-07, T = 2771.38, p = 202650, H2 = 0.000775034
ExecutionTime = 43.83 s  ClockTime = 47 s

deltaT = 0.0005
Time = 2.2615

Qdot = 1.09379e-07, T = 2771.38, p = 202650, H2 = 0.000775034
ExecutionTime = 43.83 s  ClockTime = 47 s

deltaT = 0.0005
Time = 2.262

Qdot = -9.59531e-08, T = 2771.38, p = 202650, H2 = 0.000775034
ExecutionTime = 43.84 s  ClockTime = 47 s

deltaT = 0.0005
Time = 2.2625

Qdot = 1.88037e-07, T = 2771.38, p = 202650, H2 = 0.000775034
ExecutionTime = 43.84 s  ClockTime = 47 s

deltaT = 0.0005
Time = 2.263

Qdot = -2.49081e-08, T = 2771.38, p = 202650, H2 = 0.000775034
ExecutionTime = 43.84 s  ClockTime = 47 s

deltaT = 0.0005
Time = 2.2635

Qdot = -1.88039e-07, T = 2771.38, p = 202650, H2 = 0.000775034
ExecutionTime = 43.84 s  ClockTime = 47 s

deltaT = 0.0005
Time = 2.264

Qdot = 1.09379e-07, T = 2771.38, p = 202650, H2 = 0.000775034
ExecutionTime = 43.84 s  ClockTime = 47 s

deltaT = 0.0005
Time = 2.2645

Qdot = 1.57318e-07, T = 2771.38, p = 202650, H2 = 0.000775034
ExecutionTime = 43.84 s  ClockTime = 47 s

deltaT = 0.0005
Time = 2.265

Qdot = -1.97586e-07, T = 2771.38, p = 202650, H2 = 0.000775034
ExecutionTime = 43.84 s  ClockTime = 47 s

deltaT = 0.0005
Time = 2.2655

Qdot = 2.01461e-07, T = 2771.38, p = 202650, H2 = 0.000775034
ExecutionTime = 43.84 s  ClockTime = 47 s

deltaT = 0.0005
Time = 2.266

Qdot = -7.29912e-08, T = 2771.38, p = 202650, H2 = 0.000775034
ExecutionTime = 43.84 s  ClockTime = 47 s

deltaT = 0.0005
Time = 2.2665

Qdot = -7.59666e-09, T = 2771.38, p = 202650, H2 = 0.000775034
ExecutionTime = 43.84 s  ClockTime = 47 s

deltaT = 0.0005
Time = 2.267

Qdot = 2.30483e-08, T = 2771.38, p = 202650, H2 = 0.000775034
ExecutionTime = 43.84 s  ClockTime = 47 s

deltaT = 0.0005
Time = 2.2675

Qdot = -8.25279e-08, T = 2771.38, p = 202650, H2 = 0.000775034
ExecutionTime = 43.84 s  ClockTime = 47 s

deltaT = 0.0005
Time = 2.268

Qdot = 2.01461e-07, T = 2771.38, p = 202650, H2 = 0.000775034
ExecutionTime = 43.85 s  ClockTime = 47 s

deltaT = 0.0005
Time = 2.2685

Qdot = -2.49081e-08, T = 2771.38, p = 202650, H2 = 0.000775034
ExecutionTime = 43.85 s  ClockTime = 47 s

deltaT = 0.0005
Time = 2.269

Qdot = -1.88039e-07, T = 2771.38, p = 202650, H2 = 0.000775034
ExecutionTime = 43.85 s  ClockTime = 47 s

deltaT = 0.0005
Time = 2.2695

Qdot = 1.09379e-07, T = 2771.38, p = 202650, H2 = 0.000775034
ExecutionTime = 43.85 s  ClockTime = 47 s

deltaT = 0.0005
Time = 2.27

Qdot = -9.59531e-08, T = 2771.38, p = 202650, H2 = 0.000775034
ExecutionTime = 43.85 s  ClockTime = 47 s

deltaT = 0.0005
Time = 2.2705

Qdot = 1.88037e-07, T = 2771.38, p = 202650, H2 = 0.000775034
ExecutionTime = 43.86 s  ClockTime = 47 s

deltaT = 0.0005
Time = 2.271

Qdot = -2.49081e-08, T = 2771.38, p = 202650, H2 = 0.000775034
ExecutionTime = 43.86 s  ClockTime = 47 s

deltaT = 0.0005
Time = 2.2715

Qdot = -1.88039e-07, T = 2771.38, p = 202650, H2 = 0.000775034
ExecutionTime = 43.86 s  ClockTime = 47 s

deltaT = 0.0005
Time = 2.272

Qdot = 1.09379e-07, T = 2771.38, p = 202650, H2 = 0.000775034
ExecutionTime = 43.86 s  ClockTime = 47 s

deltaT = 0.0005
Time = 2.2725

Qdot = 1.57318e-07, T = 2771.38, p = 202650, H2 = 0.000775034
ExecutionTime = 43.86 s  ClockTime = 47 s

deltaT = 0.0005
Time = 2.273

Qdot = -1.97586e-07, T = 2771.38, p = 202650, H2 = 0.000775034
ExecutionTime = 43.86 s  ClockTime = 47 s

deltaT = 0.0005
Time = 2.2735

Qdot = 2.01461e-07, T = 2771.38, p = 202650, H2 = 0.000775034
ExecutionTime = 43.86 s  ClockTime = 47 s

deltaT = 0.0005
Time = 2.274

Qdot = -7.29912e-08, T = 2771.38, p = 202650, H2 = 0.000775034
ExecutionTime = 43.86 s  ClockTime = 47 s

deltaT = 0.0005
Time = 2.2745

Qdot = -7.59666e-09, T = 2771.38, p = 202650, H2 = 0.000775034
ExecutionTime = 43.86 s  ClockTime = 47 s

deltaT = 0.0005
Time = 2.275

Qdot = 2.30483e-08, T = 2771.38, p = 202650, H2 = 0.000775034
ExecutionTime = 43.87 s  ClockTime = 47 s

deltaT = 0.0005
Time = 2.2755

Qdot = -8.25279e-08, T = 2771.38, p = 202650, H2 = 0.000775034
ExecutionTime = 43.87 s  ClockTime = 47 s

deltaT = 0.0005
Time = 2.276

Qdot = 2.01461e-07, T = 2771.38, p = 202650, H2 = 0.000775034
ExecutionTime = 43.87 s  ClockTime = 47 s

deltaT = 0.0005
Time = 2.2765

Qdot = -2.49081e-08, T = 2771.38, p = 202650, H2 = 0.000775034
ExecutionTime = 43.87 s  ClockTime = 47 s

deltaT = 0.0005
Time = 2.277

Qdot = -1.88039e-07, T = 2771.38, p = 202650, H2 = 0.000775034
ExecutionTime = 43.88 s  ClockTime = 47 s

deltaT = 0.0005
Time = 2.2775

Qdot = 1.09379e-07, T = 2771.38, p = 202650, H2 = 0.000775034
ExecutionTime = 43.88 s  ClockTime = 47 s

deltaT = 0.0005
Time = 2.278

Qdot = -9.59531e-08, T = 2771.38, p = 202650, H2 = 0.000775034
ExecutionTime = 43.88 s  ClockTime = 47 s

deltaT = 0.0005
Time = 2.2785

Qdot = 1.88037e-07, T = 2771.38, p = 202650, H2 = 0.000775034
ExecutionTime = 43.88 s  ClockTime = 47 s

deltaT = 0.0005
Time = 2.279

Qdot = -2.49081e-08, T = 2771.38, p = 202650, H2 = 0.000775034
ExecutionTime = 43.88 s  ClockTime = 47 s

deltaT = 0.0005
Time = 2.2795

Qdot = -1.88039e-07, T = 2771.38, p = 202650, H2 = 0.000775034
ExecutionTime = 43.88 s  ClockTime = 47 s

deltaT = 0.0005
Time = 2.28

Qdot = 1.09379e-07, T = 2771.38, p = 202650, H2 = 0.000775034
ExecutionTime = 43.88 s  ClockTime = 47 s

deltaT = 0.0005
Time = 2.2805

Qdot = 1.57318e-07, T = 2771.38, p = 202650, H2 = 0.000775034
ExecutionTime = 43.88 s  ClockTime = 47 s

deltaT = 0.0005
Time = 2.281

Qdot = -1.97586e-07, T = 2771.38, p = 202650, H2 = 0.000775034
ExecutionTime = 43.88 s  ClockTime = 47 s

deltaT = 0.0005
Time = 2.2815

Qdot = 2.01461e-07, T = 2771.38, p = 202650, H2 = 0.000775034
ExecutionTime = 43.88 s  ClockTime = 47 s

deltaT = 0.0005
Time = 2.282

Qdot = -7.29912e-08, T = 2771.38, p = 202650, H2 = 0.000775034
ExecutionTime = 43.89 s  ClockTime = 47 s

deltaT = 0.0005
Time = 2.2825

Qdot = -7.59666e-09, T = 2771.38, p = 202650, H2 = 0.000775034
ExecutionTime = 43.89 s  ClockTime = 47 s

deltaT = 0.0005
Time = 2.283

Qdot = 2.30483e-08, T = 2771.38, p = 202650, H2 = 0.000775034
ExecutionTime = 43.9 s  ClockTime = 47 s

deltaT = 0.0005
Time = 2.2835

Qdot = -8.25279e-08, T = 2771.38, p = 202650, H2 = 0.000775034
ExecutionTime = 43.9 s  ClockTime = 47 s

deltaT = 0.0005
Time = 2.284

Qdot = 2.01461e-07, T = 2771.38, p = 202650, H2 = 0.000775034
ExecutionTime = 43.9 s  ClockTime = 47 s

deltaT = 0.0005
Time = 2.2845

Qdot = -2.49081e-08, T = 2771.38, p = 202650, H2 = 0.000775034
ExecutionTime = 43.9 s  ClockTime = 47 s

deltaT = 0.0005
Time = 2.285

Qdot = -1.88039e-07, T = 2771.38, p = 202650, H2 = 0.000775034
ExecutionTime = 43.9 s  ClockTime = 47 s

deltaT = 0.0005
Time = 2.2855

Qdot = 1.09379e-07, T = 2771.38, p = 202650, H2 = 0.000775034
ExecutionTime = 43.9 s  ClockTime = 47 s

deltaT = 0.0005
Time = 2.286

Qdot = -9.59531e-08, T = 2771.38, p = 202650, H2 = 0.000775034
ExecutionTime = 43.9 s  ClockTime = 47 s

deltaT = 0.0005
Time = 2.2865

Qdot = 1.88037e-07, T = 2771.38, p = 202650, H2 = 0.000775034
ExecutionTime = 43.9 s  ClockTime = 47 s

deltaT = 0.0005
Time = 2.287

Qdot = -2.49081e-08, T = 2771.38, p = 202650, H2 = 0.000775034
ExecutionTime = 43.91 s  ClockTime = 47 s

deltaT = 0.0005
Time = 2.2875

Qdot = -1.88039e-07, T = 2771.38, p = 202650, H2 = 0.000775034
ExecutionTime = 43.91 s  ClockTime = 47 s

deltaT = 0.0005
Time = 2.288

Qdot = 1.09379e-07, T = 2771.38, p = 202650, H2 = 0.000775034
ExecutionTime = 43.91 s  ClockTime = 47 s

deltaT = 0.0005
Time = 2.2885

Qdot = 1.57318e-07, T = 2771.38, p = 202650, H2 = 0.000775034
ExecutionTime = 43.91 s  ClockTime = 47 s

deltaT = 0.0005
Time = 2.289

Qdot = -1.97586e-07, T = 2771.38, p = 202650, H2 = 0.000775034
ExecutionTime = 43.91 s  ClockTime = 47 s

deltaT = 0.0005
Time = 2.2895

