/*---------------------------------------------------------------------------*\
  =========                 |
  \\      /  F ield         | OpenFOAM: The Open Source CFD Toolbox
   \\    /   O peration     | Website:  https://openfoam.org
    \\  /    A nd           | Version:  6
     \\/     M anipulation  |
\*---------------------------------------------------------------------------*/
Build  : 6-e98287d00894
Exec   : icoFoam
Date   : Apr 30 2019
Time   : 14:23:57
Host   : "ArchMSI"
PID    : 2462
I/O    : uncollated
Case   : /home/jack/OpenFOAM/elbow
nProcs : 1
sigFpe : Enabling floating point exception trapping (FOAM_SIGFPE).
fileModificationChecking : Monitoring run-time modified files using timeStampMaster (fileModificationSkew 10)
allowSystemOperations : Allowing user-supplied system call operations

// * * * * * * * * * * * * * * * * * * * * * * * * * * * * * * * * * * * * * //
Create time

Create mesh for time = 10

Reading transportProperties

Reading field p

Reading field U

Reading/calculating face flux field phi


Starting time loop

Time = 10.05

Courant Number mean: 0.0807741 max: 0.503643
smoothSolver:  Solving for Ux, Initial residual = 0.000974749, Final residual = 2.03788e-06, No Iterations 1
smoothSolver:  Solving for Uy, Initial residual = 0.000688455, Final residual = 1.32929e-06, No Iterations 1
DICPCG:  Solving for p, Initial residual = 0.0142028, Final residual = 0.000606738, No Iterations 4
DICPCG:  Solving for p, Initial residual = 0.00175627, Final residual = 7.63706e-05, No Iterations 21
DICPCG:  Solving for p, Initial residual = 0.00058896, Final residual = 2.88362e-05, No Iterations 46
time step continuity errors : sum local = 6.44541e-09, global = -2.70648e-10, cumulative = -2.70648e-10
DICPCG:  Solving for p, Initial residual = 0.000833609, Final residual = 3.74901e-05, No Iterations 7
DICPCG:  Solving for p, Initial residual = 0.000130931, Final residual = 6.16351e-06, No Iterations 51
DICPCG:  Solving for p, Initial residual = 4.74647e-05, Final residual = 8.28829e-07, No Iterations 15
time step continuity errors : sum local = 1.8555e-10, global = 1.65026e-11, cumulative = -2.54145e-10
ExecutionTime = 0.01 s  ClockTime = 0 s

Time = 10.1

Courant Number mean: 0.0807781 max: 0.503639
smoothSolver:  Solving for Ux, Initial residual = 0.000977845, Final residual = 2.00627e-06, No Iterations 1
smoothSolver:  Solving for Uy, Initial residual = 0.000686918, Final residual = 1.33038e-06, No Iterations 1
DICPCG:  Solving for p, Initial residual = 0.00997832, Final residual = 0.000461797, No Iterations 4
DICPCG:  Solving for p, Initial residual = 0.0014895, Final residual = 6.0231e-05, No Iterations 6
DICPCG:  Solving for p, Initial residual = 0.000219261, Final residual = 9.68309e-06, No Iterations 48
time step continuity errors : sum local = 2.16984e-09, global = -3.95412e-11, cumulative = -2.93686e-10
DICPCG:  Solving for p, Initial residual = 0.000511687, Final residual = 1.68552e-05, No Iterations 5
DICPCG:  Solving for p, Initial residual = 8.23319e-05, Final residual = 4.00433e-06, No Iterations 16
DICPCG:  Solving for p, Initial residual = 1.82927e-05, Final residual = 8.29997e-07, No Iterations 19
time step continuity errors : sum local = 1.85878e-10, global = 2.92421e-13, cumulative = -2.93394e-10
ExecutionTime = 0.01 s  ClockTime = 0 s

Time = 10.15

Courant Number mean: 0.0807825 max: 0.503642
smoothSolver:  Solving for Ux, Initial residual = 0.000976406, Final residual = 1.99162e-06, No Iterations 1
smoothSolver:  Solving for Uy, Initial residual = 0.000686381, Final residual = 1.3194e-06, No Iterations 1
DICPCG:  Solving for p, Initial residual = 0.00877058, Final residual = 0.000300025, No Iterations 5
DICPCG:  Solving for p, Initial residual = 0.00143091, Final residual = 6.89253e-05, No Iterations 6
DICPCG:  Solving for p, Initial residual = 0.000211677, Final residual = 1.05744e-05, No Iterations 49
time step continuity errors : sum local = 2.36465e-09, global = -1.53031e-10, cumulative = -4.46425e-10
DICPCG:  Solving for p, Initial residual = 0.000444459, Final residual = 1.7818e-05, No Iterations 5
DICPCG:  Solving for p, Initial residual = 8.11825e-05, Final residual = 3.66132e-06, No Iterations 20
DICPCG:  Solving for p, Initial residual = 1.8356e-05, Final residual = 9.09568e-07, No Iterations 14
time step continuity errors : sum local = 2.03253e-10, global = -4.17817e-11, cumulative = -4.88206e-10
ExecutionTime = 0.01 s  ClockTime = 0 s

Time = 10.2

Courant Number mean: 0.0807886 max: 0.503652
smoothSolver:  Solving for Ux, Initial residual = 0.000971216, Final residual = 1.95451e-06, No Iterations 1
smoothSolver:  Solving for Uy, Initial residual = 0.000686257, Final residual = 1.33149e-06, No Iterations 1
DICPCG:  Solving for p, Initial residual = 0.0107761, Final residual = 0.000463786, No Iterations 4
DICPCG:  Solving for p, Initial residual = 0.00171419, Final residual = 7.83706e-05, No Iterations 6
DICPCG:  Solving for p, Initial residual = 0.000258736, Final residual = 1.0445e-05, No Iterations 51
time step continuity errors : sum local = 2.32365e-09, global = -2.84489e-13, cumulative = -4.88491e-10
DICPCG:  Solving for p, Initial residual = 0.000557995, Final residual = 2.65746e-05, No Iterations 5
DICPCG:  Solving for p, Initial residual = 8.6122e-05, Final residual = 3.85168e-06, No Iterations 12
DICPCG:  Solving for p, Initial residual = 2.10868e-05, Final residual = 9.69355e-07, No Iterations 18
time step continuity errors : sum local = 2.15507e-10, global = 1.06311e-12, cumulative = -4.87428e-10
ExecutionTime = 0.02 s  ClockTime = 0 s

Time = 10.25

Courant Number mean: 0.0807946 max: 0.50367
smoothSolver:  Solving for Ux, Initial residual = 0.000967099, Final residual = 1.93607e-06, No Iterations 1
smoothSolver:  Solving for Uy, Initial residual = 0.000685908, Final residual = 1.33131e-06, No Iterations 1
DICPCG:  Solving for p, Initial residual = 0.00832581, Final residual = 0.000399674, No Iterations 5
DICPCG:  Solving for p, Initial residual = 0.00156863, Final residual = 5.24759e-05, No Iterations 7
DICPCG:  Solving for p, Initial residual = 0.000241738, Final residual = 1.03826e-05, No Iterations 12
time step continuity errors : sum local = 2.30708e-09, global = 5.37117e-10, cumulative = 4.96892e-11
DICPCG:  Solving for p, Initial residual = 0.000400432, Final residual = 1.47016e-05, No Iterations 6
DICPCG:  Solving for p, Initial residual = 8.54642e-05, Final residual = 4.2079e-06, No Iterations 30
DICPCG:  Solving for p, Initial residual = 3.49893e-05, Final residual = 9.62186e-07, No Iterations 22
time step continuity errors : sum local = 2.13763e-10, global = -5.41045e-12, cumulative = 4.42788e-11
ExecutionTime = 0.02 s  ClockTime = 0 s

Time = 10.3

Courant Number mean: 0.0808004 max: 0.503695
smoothSolver:  Solving for Ux, Initial residual = 0.000963415, Final residual = 1.90283e-06, No Iterations 1
smoothSolver:  Solving for Uy, Initial residual = 0.000684905, Final residual = 1.32412e-06, No Iterations 1
DICPCG:  Solving for p, Initial residual = 0.00785178, Final residual = 0.000374036, No Iterations 5
DICPCG:  Solving for p, Initial residual = 0.00150314, Final residual = 7.31011e-05, No Iterations 6
DICPCG:  Solving for p, Initial residual = 0.000235048, Final residual = 1.10674e-05, No Iterations 8
time step continuity errors : sum local = 2.45732e-09, global = 4.9062e-10, cumulative = 5.34899e-10
DICPCG:  Solving for p, Initial residual = 0.000384846, Final residual = 1.45889e-05, No Iterations 6
DICPCG:  Solving for p, Initial residual = 8.07695e-05, Final residual = 3.95518e-06, No Iterations 39
DICPCG:  Solving for p, Initial residual = 2.68671e-05, Final residual = 7.22305e-07, No Iterations 24
time step continuity errors : sum local = 1.60365e-10, global = 1.28693e-12, cumulative = 5.36186e-10
ExecutionTime = 0.02 s  ClockTime = 0 s

Time = 10.35

Courant Number mean: 0.080806 max: 0.503729
smoothSolver:  Solving for Ux, Initial residual = 0.000958828, Final residual = 1.88044e-06, No Iterations 1
smoothSolver:  Solving for Uy, Initial residual = 0.000683118, Final residual = 1.32368e-06, No Iterations 1
DICPCG:  Solving for p, Initial residual = 0.00860761, Final residual = 0.000331206, No Iterations 5
DICPCG:  Solving for p, Initial residual = 0.00154936, Final residual = 7.54717e-05, No Iterations 6
DICPCG:  Solving for p, Initial residual = 0.000236771, Final residual = 1.08253e-05, No Iterations 44
time step continuity errors : sum local = 2.4045e-09, global = 1.53894e-11, cumulative = 5.51576e-10
DICPCG:  Solving for p, Initial residual = 0.000414672, Final residual = 1.9462e-05, No Iterations 5
DICPCG:  Solving for p, Initial residual = 7.97468e-05, Final residual = 3.84084e-06, No Iterations 7
DICPCG:  Solving for p, Initial residual = 1.3742e-05, Final residual = 9.0207e-07, No Iterations 50
time step continuity errors : sum local = 2.00176e-10, global = -2.09475e-12, cumulative = 5.49481e-10
ExecutionTime = 0.03 s  ClockTime = 0 s

Time = 10.4

Courant Number mean: 0.0808119 max: 0.503774
smoothSolver:  Solving for Ux, Initial residual = 0.000953866, Final residual = 1.85879e-06, No Iterations 1
smoothSolver:  Solving for Uy, Initial residual = 0.000680985, Final residual = 1.3198e-06, No Iterations 1
DICPCG:  Solving for p, Initial residual = 0.00815813, Final residual = 0.000344075, No Iterations 5
DICPCG:  Solving for p, Initial residual = 0.00147693, Final residual = 7.04673e-05, No Iterations 6
DICPCG:  Solving for p, Initial residual = 0.000219546, Final residual = 7.04722e-06, No Iterations 47
time step continuity errors : sum local = 1.56459e-09, global = -3.6377e-11, cumulative = 5.13104e-10
DICPCG:  Solving for p, Initial residual = 0.000414663, Final residual = 2.02169e-05, No Iterations 5
DICPCG:  Solving for p, Initial residual = 8.24929e-05, Final residual = 3.76071e-06, No Iterations 8
DICPCG:  Solving for p, Initial residual = 1.34417e-05, Final residual = 9.58696e-07, No Iterations 14
time step continuity errors : sum local = 2.1273e-10, global = -4.73943e-11, cumulative = 4.65709e-10
ExecutionTime = 0.03 s  ClockTime = 0 s

Time = 10.45

Courant Number mean: 0.080818 max: 0.503831
smoothSolver:  Solving for Ux, Initial residual = 0.000951244, Final residual = 1.83111e-06, No Iterations 1
smoothSolver:  Solving for Uy, Initial residual = 0.000678864, Final residual = 1.3249e-06, No Iterations 1
DICPCG:  Solving for p, Initial residual = 0.00797783, Final residual = 0.00032623, No Iterations 5
DICPCG:  Solving for p, Initial residual = 0.00145939, Final residual = 6.9432e-05, No Iterations 6
DICPCG:  Solving for p, Initial residual = 0.000213523, Final residual = 9.27039e-06, No Iterations 39
time step continuity errors : sum local = 2.05875e-09, global = 2.1753e-10, cumulative = 6.8324e-10
DICPCG:  Solving for p, Initial residual = 0.000424911, Final residual = 2.08897e-05, No Iterations 5
DICPCG:  Solving for p, Initial residual = 8.51691e-05, Final residual = 3.75895e-06, No Iterations 18
DICPCG:  Solving for p, Initial residual = 2.14161e-05, Final residual = 9.60813e-07, No Iterations 18
time step continuity errors : sum local = 2.13283e-10, global = 3.94068e-11, cumulative = 7.22647e-10
ExecutionTime = 0.04 s  ClockTime = 0 s

Time = 10.5

Courant Number mean: 0.0808239 max: 0.503902
smoothSolver:  Solving for Ux, Initial residual = 0.000949713, Final residual = 1.80944e-06, No Iterations 1
smoothSolver:  Solving for Uy, Initial residual = 0.000676712, Final residual = 1.32348e-06, No Iterations 1
DICPCG:  Solving for p, Initial residual = 0.00997788, Final residual = 0.000332944, No Iterations 5
DICPCG:  Solving for p, Initial residual = 0.00160629, Final residual = 6.7894e-05, No Iterations 7
DICPCG:  Solving for p, Initial residual = 0.000237022, Final residual = 1.165e-05, No Iterations 44
time step continuity errors : sum local = 2.58599e-09, global = -7.04688e-11, cumulative = 6.52178e-10
DICPCG:  Solving for p, Initial residual = 0.000561149, Final residual = 2.34756e-05, No Iterations 5
DICPCG:  Solving for p, Initial residual = 0.00010016, Final residual = 4.72157e-06, No Iterations 18
DICPCG:  Solving for p, Initial residual = 2.06163e-05, Final residual = 9.34229e-07, No Iterations 49
time step continuity errors : sum local = 2.07189e-10, global = -3.3188e-12, cumulative = 6.48859e-10
ExecutionTime = 0.04 s  ClockTime = 0 s

Time = 10.55

Courant Number mean: 0.0808295 max: 0.503984
smoothSolver:  Solving for Ux, Initial residual = 0.000947002, Final residual = 1.78914e-06, No Iterations 1
smoothSolver:  Solving for Uy, Initial residual = 0.000673447, Final residual = 1.31804e-06, No Iterations 1
DICPCG:  Solving for p, Initial residual = 0.0110948, Final residual = 0.000354489, No Iterations 5
DICPCG:  Solving for p, Initial residual = 0.0016847, Final residual = 8.35261e-05, No Iterations 7
DICPCG:  Solving for p, Initial residual = 0.00027274, Final residual = 1.1473e-05, No Iterations 49
time step continuity errors : sum local = 2.54679e-09, global = 4.6353e-11, cumulative = 6.95212e-10
DICPCG:  Solving for p, Initial residual = 0.000609929, Final residual = 2.29917e-05, No Iterations 5
DICPCG:  Solving for p, Initial residual = 0.000105701, Final residual = 4.94313e-06, No Iterations 9
DICPCG:  Solving for p, Initial residual = 1.88061e-05, Final residual = 9.24132e-07, No Iterations 45
time step continuity errors : sum local = 2.04957e-10, global = 1.16601e-11, cumulative = 7.06872e-10
ExecutionTime = 0.04 s  ClockTime = 0 s

Time = 10.6

Courant Number mean: 0.0808349 max: 0.50407
smoothSolver:  Solving for Ux, Initial residual = 0.000945075, Final residual = 1.78041e-06, No Iterations 1
smoothSolver:  Solving for Uy, Initial residual = 0.000670866, Final residual = 1.33229e-06, No Iterations 1
DICPCG:  Solving for p, Initial residual = 0.012497, Final residual = 0.000541675, No Iterations 4
DICPCG:  Solving for p, Initial residual = 0.00167821, Final residual = 6.48554e-05, No Iterations 19
DICPCG:  Solving for p, Initial residual = 0.000484396, Final residual = 2.35049e-05, No Iterations 38
time step continuity errors : sum local = 5.22844e-09, global = -3.51633e-10, cumulative = 3.55239e-10
DICPCG:  Solving for p, Initial residual = 0.0006308, Final residual = 2.85984e-05, No Iterations 9
DICPCG:  Solving for p, Initial residual = 0.000116781, Final residual = 5.81599e-06, No Iterations 27
DICPCG:  Solving for p, Initial residual = 3.64507e-05, Final residual = 8.57496e-07, No Iterations 48
time step continuity errors : sum local = 1.90946e-10, global = -4.06269e-12, cumulative = 3.51177e-10
ExecutionTime = 0.04 s  ClockTime = 0 s

Time = 10.65

Courant Number mean: 0.0808404 max: 0.504171
smoothSolver:  Solving for Ux, Initial residual = 0.00094485, Final residual = 1.76023e-06, No Iterations 1
smoothSolver:  Solving for Uy, Initial residual = 0.000669138, Final residual = 1.36107e-06, No Iterations 1
DICPCG:  Solving for p, Initial residual = 0.0126232, Final residual = 0.000624952, No Iterations 4
DICPCG:  Solving for p, Initial residual = 0.00189123, Final residual = 8.37958e-05, No Iterations 8
DICPCG:  Solving for p, Initial residual = 0.000349436, Final residual = 1.52925e-05, No Iterations 52
time step continuity errors : sum local = 3.39594e-09, global = -1.64684e-10, cumulative = 1.86493e-10
DICPCG:  Solving for p, Initial residual = 0.000690602, Final residual = 2.19689e-05, No Iterations 5
DICPCG:  Solving for p, Initial residual = 0.000110663, Final residual = 5.34818e-06, No Iterations 8
DICPCG:  Solving for p, Initial residual = 1.78229e-05, Final residual = 9.79545e-07, No Iterations 12
time step continuity errors : sum local = 2.17402e-10, global = -3.52633e-11, cumulative = 1.5123e-10
ExecutionTime = 0.04 s  ClockTime = 0 s

Time = 10.7

Courant Number mean: 0.0808467 max: 0.504281
smoothSolver:  Solving for Ux, Initial residual = 0.000941943, Final residual = 1.77236e-06, No Iterations 1
smoothSolver:  Solving for Uy, Initial residual = 0.000665988, Final residual = 1.34782e-06, No Iterations 1
DICPCG:  Solving for p, Initial residual = 0.0102299, Final residual = 0.000356262, No Iterations 5
DICPCG:  Solving for p, Initial residual = 0.00150217, Final residual = 6.18915e-05, No Iterations 7
DICPCG:  Solving for p, Initial residual = 0.000248616, Final residual = 1.17813e-05, No Iterations 19
time step continuity errors : sum local = 2.60962e-09, global = 1.99163e-10, cumulative = 3.50393e-10
DICPCG:  Solving for p, Initial residual = 0.000529368, Final residual = 2.36251e-05, No Iterations 5
DICPCG:  Solving for p, Initial residual = 8.46215e-05, Final residual = 4.05261e-06, No Iterations 27
DICPCG:  Solving for p, Initial residual = 2.17379e-05, Final residual = 9.38193e-07, No Iterations 49
time step continuity errors : sum local = 2.078e-10, global = 9.6015e-12, cumulative = 3.59994e-10
ExecutionTime = 0.05 s  ClockTime = 0 s

Time = 10.75

Courant Number mean: 0.0808529 max: 0.504394
smoothSolver:  Solving for Ux, Initial residual = 0.000939541, Final residual = 1.77897e-06, No Iterations 1
smoothSolver:  Solving for Uy, Initial residual = 0.000663609, Final residual = 1.35959e-06, No Iterations 1
DICPCG:  Solving for p, Initial residual = 0.0075367, Final residual = 0.000308175, No Iterations 5
DICPCG:  Solving for p, Initial residual = 0.00132765, Final residual = 6.35914e-05, No Iterations 13
DICPCG:  Solving for p, Initial residual = 0.000238189, Final residual = 1.15154e-05, No Iterations 19
time step continuity errors : sum local = 2.54849e-09, global = -6.06742e-10, cumulative = -2.46747e-10
DICPCG:  Solving for p, Initial residual = 0.000431109, Final residual = 2.05991e-05, No Iterations 5
DICPCG:  Solving for p, Initial residual = 7.78269e-05, Final residual = 3.59904e-06, No Iterations 49
DICPCG:  Solving for p, Initial residual = 3.65468e-05, Final residual = 8.83593e-07, No Iterations 12
time step continuity errors : sum local = 1.95634e-10, global = 1.42669e-11, cumulative = -2.3248e-10
ExecutionTime = 0.05 s  ClockTime = 0 s

Time = 10.8

Courant Number mean: 0.080859 max: 0.504513
smoothSolver:  Solving for Ux, Initial residual = 0.000941982, Final residual = 1.79285e-06, No Iterations 1
smoothSolver:  Solving for Uy, Initial residual = 0.000661206, Final residual = 1.38103e-06, No Iterations 1
DICPCG:  Solving for p, Initial residual = 0.00809591, Final residual = 0.000288903, No Iterations 5
DICPCG:  Solving for p, Initial residual = 0.00134405, Final residual = 6.31658e-05, No Iterations 6
DICPCG:  Solving for p, Initial residual = 0.000190796, Final residual = 8.41875e-06, No Iterations 17
time step continuity errors : sum local = 1.86411e-09, global = -1.48914e-10, cumulative = -3.81395e-10
DICPCG:  Solving for p, Initial residual = 0.000457099, Final residual = 1.86734e-05, No Iterations 5
DICPCG:  Solving for p, Initial residual = 7.69694e-05, Final residual = 3.43187e-06, No Iterations 18
DICPCG:  Solving for p, Initial residual = 2.19121e-05, Final residual = 9.4036e-07, No Iterations 49
time step continuity errors : sum local = 2.08261e-10, global = 5.43547e-12, cumulative = -3.75959e-10
ExecutionTime = 0.05 s  ClockTime = 0 s

Time = 10.85

Courant Number mean: 0.0808648 max: 0.504635
smoothSolver:  Solving for Ux, Initial residual = 0.000943598, Final residual = 1.7938e-06, No Iterations 1
smoothSolver:  Solving for Uy, Initial residual = 0.000658491, Final residual = 1.39992e-06, No Iterations 1
DICPCG:  Solving for p, Initial residual = 0.00885523, Final residual = 0.000440634, No Iterations 4
DICPCG:  Solving for p, Initial residual = 0.00149104, Final residual = 7.15368e-05, No Iterations 8
DICPCG:  Solving for p, Initial residual = 0.000244734, Final residual = 9.71591e-06, No Iterations 20
time step continuity errors : sum local = 2.15284e-09, global = 2.07423e-10, cumulative = -1.68536e-10
DICPCG:  Solving for p, Initial residual = 0.000467718, Final residual = 1.95607e-05, No Iterations 5
DICPCG:  Solving for p, Initial residual = 8.52483e-05, Final residual = 4.13092e-06, No Iterations 20
DICPCG:  Solving for p, Initial residual = 2.37795e-05, Final residual = 9.03959e-07, No Iterations 48
time step continuity errors : sum local = 2.00325e-10, global = -4.38961e-12, cumulative = -1.72926e-10
ExecutionTime = 0.05 s  ClockTime = 0 s

Time = 10.9

Courant Number mean: 0.0808702 max: 0.504758
smoothSolver:  Solving for Ux, Initial residual = 0.000946236, Final residual = 1.81657e-06, No Iterations 1
smoothSolver:  Solving for Uy, Initial residual = 0.000655643, Final residual = 1.41875e-06, No Iterations 1
DICPCG:  Solving for p, Initial residual = 0.00857976, Final residual = 0.000405562, No Iterations 4
DICPCG:  Solving for p, Initial residual = 0.00141922, Final residual = 6.1561e-05, No Iterations 11
DICPCG:  Solving for p, Initial residual = 0.000249731, Final residual = 1.18061e-05, No Iterations 18
time step continuity errors : sum local = 2.61676e-09, global = -2.96332e-10, cumulative = -4.69258e-10
DICPCG:  Solving for p, Initial residual = 0.000449347, Final residual = 2.22813e-05, No Iterations 5
DICPCG:  Solving for p, Initial residual = 7.93682e-05, Final residual = 3.90037e-06, No Iterations 54
DICPCG:  Solving for p, Initial residual = 3.49723e-05, Final residual = 9.60006e-07, No Iterations 12
time step continuity errors : sum local = 2.12852e-10, global = -6.99218e-12, cumulative = -4.7625e-10
ExecutionTime = 0.05 s  ClockTime = 0 s

Time = 10.95

Courant Number mean: 0.0808763 max: 0.504881
smoothSolver:  Solving for Ux, Initial residual = 0.000949219, Final residual = 1.8306e-06, No Iterations 1
smoothSolver:  Solving for Uy, Initial residual = 0.000652676, Final residual = 1.43365e-06, No Iterations 1
DICPCG:  Solving for p, Initial residual = 0.00876078, Final residual = 0.000350375, No Iterations 4
DICPCG:  Solving for p, Initial residual = 0.00135076, Final residual = 6.18843e-05, No Iterations 10
DICPCG:  Solving for p, Initial residual = 0.000236063, Final residual = 1.17034e-05, No Iterations 19
time step continuity errors : sum local = 2.5966e-09, global = 1.88251e-10, cumulative = -2.87999e-10
DICPCG:  Solving for p, Initial residual = 0.000496615, Final residual = 2.28391e-05, No Iterations 5
DICPCG:  Solving for p, Initial residual = 8.35598e-05, Final residual = 4.09328e-06, No Iterations 18
DICPCG:  Solving for p, Initial residual = 2.6523e-05, Final residual = 8.61175e-07, No Iterations 52
time step continuity errors : sum local = 1.91096e-10, global = 6.42964e-12, cumulative = -2.81569e-10
ExecutionTime = 0.06 s  ClockTime = 0 s

Time = 11

Courant Number mean: 0.0808822 max: 0.505002
smoothSolver:  Solving for Ux, Initial residual = 0.000951404, Final residual = 1.83345e-06, No Iterations 1
smoothSolver:  Solving for Uy, Initial residual = 0.000650545, Final residual = 1.44889e-06, No Iterations 1
DICPCG:  Solving for p, Initial residual = 0.00856374, Final residual = 0.000365078, No Iterations 4
DICPCG:  Solving for p, Initial residual = 0.00132399, Final residual = 5.88572e-05, No Iterations 11
DICPCG:  Solving for p, Initial residual = 0.000240016, Final residual = 1.16064e-05, No Iterations 19
time step continuity errors : sum local = 2.57692e-09, global = -2.72024e-10, cumulative = -5.53594e-10
DICPCG:  Solving for p, Initial residual = 0.00048022, Final residual = 2.05743e-05, No Iterations 5
DICPCG:  Solving for p, Initial residual = 7.82647e-05, Final residual = 3.3207e-06, No Iterations 55
DICPCG:  Solving for p, Initial residual = 3.32291e-05, Final residual = 9.90986e-07, No Iterations 7
time step continuity errors : sum local = 2.20095e-10, global = 1.42681e-11, cumulative = -5.39326e-10
ExecutionTime = 0.06 s  ClockTime = 0 s

Time = 11.05

Courant Number mean: 0.0808882 max: 0.505119
smoothSolver:  Solving for Ux, Initial residual = 0.000953903, Final residual = 1.84459e-06, No Iterations 1
smoothSolver:  Solving for Uy, Initial residual = 0.000648213, Final residual = 1.4564e-06, No Iterations 1
DICPCG:  Solving for p, Initial residual = 0.00806578, Final residual = 0.000386952, No Iterations 4
DICPCG:  Solving for p, Initial residual = 0.00128036, Final residual = 6.356e-05, No Iterations 15
DICPCG:  Solving for p, Initial residual = 0.000253006, Final residual = 1.00686e-05, No Iterations 49
time step continuity errors : sum local = 2.23665e-09, global = 1.37032e-10, cumulative = -4.02294e-10
DICPCG:  Solving for p, Initial residual = 0.000477135, Final residual = 1.84677e-05, No Iterations 5
DICPCG:  Solving for p, Initial residual = 7.48408e-05, Final residual = 3.1601e-06, No Iterations 18
DICPCG:  Solving for p, Initial residual = 1.79924e-05, Final residual = 9.11833e-07, No Iterations 44
time step continuity errors : sum local = 2.02698e-10, global = -3.17465e-12, cumulative = -4.05468e-10
ExecutionTime = 0.06 s  ClockTime = 0 s

Time = 11.1

Courant Number mean: 0.0808938 max: 0.50523
smoothSolver:  Solving for Ux, Initial residual = 0.000955319, Final residual = 1.85415e-06, No Iterations 1
smoothSolver:  Solving for Uy, Initial residual = 0.000646155, Final residual = 1.4233e-06, No Iterations 1
DICPCG:  Solving for p, Initial residual = 0.00945006, Final residual = 0.000441111, No Iterations 6
DICPCG:  Solving for p, Initial residual = 0.00142161, Final residual = 6.44686e-05, No Iterations 19
DICPCG:  Solving for p, Initial residual = 0.00043573, Final residual = 2.08648e-05, No Iterations 47
time step continuity errors : sum local = 4.63615e-09, global = -2.41986e-10, cumulative = -6.47454e-10
DICPCG:  Solving for p, Initial residual = 0.000625515, Final residual = 2.39787e-05, No Iterations 5
DICPCG:  Solving for p, Initial residual = 8.64671e-05, Final residual = 4.22569e-06, No Iterations 19
DICPCG:  Solving for p, Initial residual = 2.27858e-05, Final residual = 7.27061e-07, No Iterations 48
time step continuity errors : sum local = 1.61884e-10, global = -6.46457e-12, cumulative = -6.53919e-10
ExecutionTime = 0.07 s  ClockTime = 0 s

Time = 11.15

Courant Number mean: 0.0808991 max: 0.505333
smoothSolver:  Solving for Ux, Initial residual = 0.000951538, Final residual = 1.86072e-06, No Iterations 1
smoothSolver:  Solving for Uy, Initial residual = 0.000643392, Final residual = 1.42122e-06, No Iterations 1
DICPCG:  Solving for p, Initial residual = 0.00780824, Final residual = 0.00026641, No Iterations 6
DICPCG:  Solving for p, Initial residual = 0.00119059, Final residual = 5.27906e-05, No Iterations 15
DICPCG:  Solving for p, Initial residual = 0.000276341, Final residual = 1.33197e-05, No Iterations 47
time step continuity errors : sum local = 2.96958e-09, global = 1.46642e-11, cumulative = -6.39255e-10
DICPCG:  Solving for p, Initial residual = 0.000445261, Final residual = 2.03547e-05, No Iterations 5
DICPCG:  Solving for p, Initial residual = 6.64632e-05, Final residual = 3.06901e-06, No Iterations 21
DICPCG:  Solving for p, Initial residual = 1.91036e-05, Final residual = 9.97182e-07, No Iterations 18
time step continuity errors : sum local = 2.22615e-10, global = 4.6709e-11, cumulative = -5.92546e-10
ExecutionTime = 0.07 s  ClockTime = 0 s

Time = 11.2

Courant Number mean: 0.0809052 max: 0.505429
smoothSolver:  Solving for Ux, Initial residual = 0.000948101, Final residual = 1.875e-06, No Iterations 1
smoothSolver:  Solving for Uy, Initial residual = 0.000642166, Final residual = 1.413e-06, No Iterations 1
DICPCG:  Solving for p, Initial residual = 0.00822393, Final residual = 0.000309766, No Iterations 6
DICPCG:  Solving for p, Initial residual = 0.00124179, Final residual = 5.04477e-05, No Iterations 15
DICPCG:  Solving for p, Initial residual = 0.000276328, Final residual = 1.29898e-05, No Iterations 45
time step continuity errors : sum local = 2.90634e-09, global = -6.63855e-11, cumulative = -6.58931e-10
DICPCG:  Solving for p, Initial residual = 0.000434637, Final residual = 1.80173e-05, No Iterations 6
DICPCG:  Solving for p, Initial residual = 6.29895e-05, Final residual = 3.08889e-06, No Iterations 21
DICPCG:  Solving for p, Initial residual = 2.06328e-05, Final residual = 8.19734e-07, No Iterations 16
time step continuity errors : sum local = 1.83621e-10, global = 1.95734e-12, cumulative = -6.56974e-10
ExecutionTime = 0.07 s  ClockTime = 0 s

Time = 11.25

Courant Number mean: 0.080911 max: 0.505516
smoothSolver:  Solving for Ux, Initial residual = 0.000945313, Final residual = 1.88998e-06, No Iterations 1
smoothSolver:  Solving for Uy, Initial residual = 0.000641714, Final residual = 1.41005e-06, No Iterations 1
DICPCG:  Solving for p, Initial residual = 0.00861798, Final residual = 0.000363409, No Iterations 5
DICPCG:  Solving for p, Initial residual = 0.00118856, Final residual = 5.44889e-05, No Iterations 15
DICPCG:  Solving for p, Initial residual = 0.000255349, Final residual = 1.09041e-05, No Iterations 54
time step continuity errors : sum local = 2.43917e-09, global = 6.83827e-11, cumulative = -5.88591e-10
DICPCG:  Solving for p, Initial residual = 0.000437853, Final residual = 1.8149e-05, No Iterations 5
DICPCG:  Solving for p, Initial residual = 6.22082e-05, Final residual = 2.78675e-06, No Iterations 10
DICPCG:  Solving for p, Initial residual = 1.23112e-05, Final residual = 9.13336e-07, No Iterations 22
time step continuity errors : sum local = 2.04516e-10, global = 4.35709e-11, cumulative = -5.4502e-10
ExecutionTime = 0.07 s  ClockTime = 0 s

Time = 11.3

Courant Number mean: 0.0809165 max: 0.505595
smoothSolver:  Solving for Ux, Initial residual = 0.000940874, Final residual = 1.8991e-06, No Iterations 1
smoothSolver:  Solving for Uy, Initial residual = 0.000641614, Final residual = 1.41713e-06, No Iterations 1
DICPCG:  Solving for p, Initial residual = 0.00725087, Final residual = 0.000337634, No Iterations 5
DICPCG:  Solving for p, Initial residual = 0.00111116, Final residual = 4.86771e-05, No Iterations 15
DICPCG:  Solving for p, Initial residual = 0.000222265, Final residual = 9.95404e-06, No Iterations 54
time step continuity errors : sum local = 2.23113e-09, global = 6.45423e-11, cumulative = -4.80478e-10
DICPCG:  Solving for p, Initial residual = 0.000393428, Final residual = 1.69083e-05, No Iterations 5
DICPCG:  Solving for p, Initial residual = 5.9892e-05, Final residual = 2.96343e-06, No Iterations 12
DICPCG:  Solving for p, Initial residual = 1.24584e-05, Final residual = 8.88328e-07, No Iterations 14
time step continuity errors : sum local = 1.99261e-10, global = -1.18739e-11, cumulative = -4.92352e-10
ExecutionTime = 0.08 s  ClockTime = 0 s

Time = 11.35

Courant Number mean: 0.0809217 max: 0.505666
smoothSolver:  Solving for Ux, Initial residual = 0.000938463, Final residual = 1.88979e-06, No Iterations 1
smoothSolver:  Solving for Uy, Initial residual = 0.000640747, Final residual = 1.4184e-06, No Iterations 1
DICPCG:  Solving for p, Initial residual = 0.00758902, Final residual = 0.000316911, No Iterations 5
DICPCG:  Solving for p, Initial residual = 0.00110357, Final residual = 4.98895e-05, No Iterations 14
DICPCG:  Solving for p, Initial residual = 0.000197051, Final residual = 9.04666e-06, No Iterations 48
time step continuity errors : sum local = 2.03047e-09, global = 2.87442e-11, cumulative = -4.63607e-10
DICPCG:  Solving for p, Initial residual = 0.000384454, Final residual = 1.52151e-05, No Iterations 5
DICPCG:  Solving for p, Initial residual = 5.885e-05, Final residual = 2.89429e-06, No Iterations 13
DICPCG:  Solving for p, Initial residual = 1.18813e-05, Final residual = 9.90139e-07, No Iterations 8
time step continuity errors : sum local = 2.22377e-10, global = 1.24928e-12, cumulative = -4.62358e-10
ExecutionTime = 0.08 s  ClockTime = 0 s

Time = 11.4

Courant Number mean: 0.080927 max: 0.505732
smoothSolver:  Solving for Ux, Initial residual = 0.000936734, Final residual = 1.87924e-06, No Iterations 1
smoothSolver:  Solving for Uy, Initial residual = 0.000639429, Final residual = 1.41007e-06, No Iterations 1
DICPCG:  Solving for p, Initial residual = 0.00863199, Final residual = 0.000306325, No Iterations 5
DICPCG:  Solving for p, Initial residual = 0.00117462, Final residual = 5.86675e-05, No Iterations 7
DICPCG:  Solving for p, Initial residual = 0.000169726, Final residual = 7.96438e-06, No Iterations 31
time step continuity errors : sum local = 1.79031e-09, global = -4.70896e-10, cumulative = -9.33254e-10
DICPCG:  Solving for p, Initial residual = 0.000402357, Final residual = 1.35741e-05, No Iterations 5
DICPCG:  Solving for p, Initial residual = 5.85722e-05, Final residual = 2.63219e-06, No Iterations 46
DICPCG:  Solving for p, Initial residual = 2.44044e-05, Final residual = 9.00713e-07, No Iterations 15
time step continuity errors : sum local = 2.02559e-10, global = 1.87891e-11, cumulative = -9.14465e-10
ExecutionTime = 0.08 s  ClockTime = 0 s

Time = 11.45

Courant Number mean: 0.0809321 max: 0.505793
smoothSolver:  Solving for Ux, Initial residual = 0.000935057, Final residual = 1.76172e-06, No Iterations 1
smoothSolver:  Solving for Uy, Initial residual = 0.000638179, Final residual = 1.36175e-06, No Iterations 1
DICPCG:  Solving for p, Initial residual = 0.0124895, Final residual = 0.00049168, No Iterations 5
DICPCG:  Solving for p, Initial residual = 0.00177167, Final residual = 8.33299e-05, No Iterations 9
DICPCG:  Solving for p, Initial residual = 0.000280176, Final residual = 1.27916e-05, No Iterations 22
time step continuity errors : sum local = 2.88444e-09, global = -4.42131e-10, cumulative = -1.3566e-09
DICPCG:  Solving for p, Initial residual = 0.000564468, Final residual = 2.66859e-05, No Iterations 5
DICPCG:  Solving for p, Initial residual = 9.73847e-05, Final residual = 4.8672e-06, No Iterations 53
DICPCG:  Solving for p, Initial residual = 4.7466e-05, Final residual = 9.49519e-07, No Iterations 12
time step continuity errors : sum local = 2.14249e-10, global = 2.01044e-11, cumulative = -1.33649e-09
ExecutionTime = 0.08 s  ClockTime = 0 s

Time = 11.5

Courant Number mean: 0.0809369 max: 0.50585
smoothSolver:  Solving for Ux, Initial residual = 0.000931407, Final residual = 1.76107e-06, No Iterations 1
smoothSolver:  Solving for Uy, Initial residual = 0.000635513, Final residual = 1.35799e-06, No Iterations 1
DICPCG:  Solving for p, Initial residual = 0.00803416, Final residual = 0.00028554, No Iterations 5
DICPCG:  Solving for p, Initial residual = 0.00112949, Final residual = 5.05083e-05, No Iterations 11
DICPCG:  Solving for p, Initial residual = 0.000203092, Final residual = 9.40209e-06, No Iterations 25
time step continuity errors : sum local = 2.12008e-09, global = -8.80754e-11, cumulative = -1.42457e-09
DICPCG:  Solving for p, Initial residual = 0.000400535, Final residual = 1.5056e-05, No Iterations 5
DICPCG:  Solving for p, Initial residual = 6.45994e-05, Final residual = 3.12853e-06, No Iterations 9
DICPCG:  Solving for p, Initial residual = 1.17775e-05, Final residual = 8.894e-07, No Iterations 46
time step continuity errors : sum local = 2.00563e-10, global = -1.64815e-12, cumulative = -1.42622e-09
ExecutionTime = 0.08 s  ClockTime = 0 s

Time = 11.55

Courant Number mean: 0.0809415 max: 0.505903
smoothSolver:  Solving for Ux, Initial residual = 0.000928786, Final residual = 1.74504e-06, No Iterations 1
smoothSolver:  Solving for Uy, Initial residual = 0.000634279, Final residual = 1.35342e-06, No Iterations 1
DICPCG:  Solving for p, Initial residual = 0.00765052, Final residual = 0.000265803, No Iterations 5
DICPCG:  Solving for p, Initial residual = 0.00110021, Final residual = 5.4784e-05, No Iterations 10
DICPCG:  Solving for p, Initial residual = 0.000195638, Final residual = 8.60683e-06, No Iterations 24
time step continuity errors : sum local = 1.93795e-09, global = -3.20289e-10, cumulative = -1.7465e-09
DICPCG:  Solving for p, Initial residual = 0.00037854, Final residual = 1.53656e-05, No Iterations 5
DICPCG:  Solving for p, Initial residual = 6.32278e-05, Final residual = 2.97627e-06, No Iterations 42
DICPCG:  Solving for p, Initial residual = 2.27256e-05, Final residual = 7.52214e-07, No Iterations 13
time step continuity errors : sum local = 1.69414e-10, global = -9.48048e-12, cumulative = -1.75598e-09
ExecutionTime = 0.09 s  ClockTime = 0 s

Time = 11.6

Courant Number mean: 0.0809459 max: 0.505953
smoothSolver:  Solving for Ux, Initial residual = 0.000929055, Final residual = 1.73089e-06, No Iterations 1
smoothSolver:  Solving for Uy, Initial residual = 0.000632732, Final residual = 1.34772e-06, No Iterations 1
DICPCG:  Solving for p, Initial residual = 0.00747166, Final residual = 0.000257978, No Iterations 5
DICPCG:  Solving for p, Initial residual = 0.00111736, Final residual = 4.58467e-05, No Iterations 11
DICPCG:  Solving for p, Initial residual = 0.000185827, Final residual = 8.59772e-06, No Iterations 25
time step continuity errors : sum local = 1.93381e-09, global = -1.9123e-10, cumulative = -1.94721e-09
DICPCG:  Solving for p, Initial residual = 0.000370838, Final residual = 1.45244e-05, No Iterations 5
DICPCG:  Solving for p, Initial residual = 6.34297e-05, Final residual = 2.86644e-06, No Iterations 46
DICPCG:  Solving for p, Initial residual = 1.84372e-05, Final residual = 8.36647e-07, No Iterations 6
time step continuity errors : sum local = 1.88213e-10, global = 6.42885e-13, cumulative = -1.94657e-09
ExecutionTime = 0.09 s  ClockTime = 0 s

Time = 11.65

Courant Number mean: 0.0809501 max: 0.506001
smoothSolver:  Solving for Ux, Initial residual = 0.000930254, Final residual = 1.70918e-06, No Iterations 1
smoothSolver:  Solving for Uy, Initial residual = 0.000631021, Final residual = 1.33794e-06, No Iterations 1
DICPCG:  Solving for p, Initial residual = 0.00715254, Final residual = 0.000255434, No Iterations 5
DICPCG:  Solving for p, Initial residual = 0.00113271, Final residual = 5.11756e-05, No Iterations 9
DICPCG:  Solving for p, Initial residual = 0.000183065, Final residual = 7.49502e-06, No Iterations 24
time step continuity errors : sum local = 1.68262e-09, global = -7.79048e-11, cumulative = -2.02448e-09
DICPCG:  Solving for p, Initial residual = 0.000350924, Final residual = 1.40176e-05, No Iterations 5
DICPCG:  Solving for p, Initial residual = 6.22031e-05, Final residual = 3.06433e-06, No Iterations 13
DICPCG:  Solving for p, Initial residual = 1.19203e-05, Final residual = 8.41049e-07, No Iterations 45
time step continuity errors : sum local = 1.88828e-10, global = -8.75265e-12, cumulative = -2.03323e-09
ExecutionTime = 0.09 s  ClockTime = 0 s

Time = 11.7

Courant Number mean: 0.0809541 max: 0.506047
smoothSolver:  Solving for Ux, Initial residual = 0.000929995, Final residual = 1.67821e-06, No Iterations 1
smoothSolver:  Solving for Uy, Initial residual = 0.00062847, Final residual = 1.32588e-06, No Iterations 1
DICPCG:  Solving for p, Initial residual = 0.00683528, Final residual = 0.000246486, No Iterations 5
DICPCG:  Solving for p, Initial residual = 0.00111349, Final residual = 4.68506e-05, No Iterations 11
DICPCG:  Solving for p, Initial residual = 0.00019413, Final residual = 9.49576e-06, No Iterations 24
time step continuity errors : sum local = 2.12891e-09, global = -1.23889e-10, cumulative = -2.15712e-09
DICPCG:  Solving for p, Initial residual = 0.000349677, Final residual = 1.23731e-05, No Iterations 5
DICPCG:  Solving for p, Initial residual = 6.12374e-05, Final residual = 2.74771e-06, No Iterations 46
DICPCG:  Solving for p, Initial residual = 1.65693e-05, Final residual = 8.75511e-07, No Iterations 6
time step continuity errors : sum local = 1.96314e-10, global = -1.01318e-11, cumulative = -2.16725e-09
ExecutionTime = 0.09 s  ClockTime = 0 s

Time = 11.75

Courant Number mean: 0.080958 max: 0.506091
smoothSolver:  Solving for Ux, Initial residual = 0.000929594, Final residual = 1.64763e-06, No Iterations 1
smoothSolver:  Solving for Uy, Initial residual = 0.000627058, Final residual = 1.32257e-06, No Iterations 1
DICPCG:  Solving for p, Initial residual = 0.00667544, Final residual = 0.000235915, No Iterations 5
DICPCG:  Solving for p, Initial residual = 0.00109541, Final residual = 5.38176e-05, No Iterations 8
DICPCG:  Solving for p, Initial residual = 0.000182015, Final residual = 8.51029e-06, No Iterations 28
time step continuity errors : sum local = 1.90394e-09, global = 1.81881e-10, cumulative = -1.98537e-09
DICPCG:  Solving for p, Initial residual = 0.000348813, Final residual = 1.13612e-05, No Iterations 5
DICPCG:  Solving for p, Initial residual = 5.98835e-05, Final residual = 2.99281e-06, No Iterations 13
DICPCG:  Solving for p, Initial residual = 1.20843e-05, Final residual = 7.84583e-07, No Iterations 29
time step continuity errors : sum local = 1.75532e-10, global = -8.22073e-12, cumulative = -1.99359e-09
ExecutionTime = 0.1 s  ClockTime = 0 s

Time = 11.8

Courant Number mean: 0.0809618 max: 0.506133
smoothSolver:  Solving for Ux, Initial residual = 0.000928414, Final residual = 1.61985e-06, No Iterations 1
smoothSolver:  Solving for Uy, Initial residual = 0.000625435, Final residual = 1.31096e-06, No Iterations 1
DICPCG:  Solving for p, Initial residual = 0.0064943, Final residual = 0.00022237, No Iterations 5
DICPCG:  Solving for p, Initial residual = 0.00107939, Final residual = 4.99343e-05, No Iterations 9
DICPCG:  Solving for p, Initial residual = 0.000177286, Final residual = 8.73258e-06, No Iterations 23
time step continuity errors : sum local = 1.94981e-09, global = -7.22021e-11, cumulative = -2.06579e-09
DICPCG:  Solving for p, Initial residual = 0.000339715, Final residual = 1.11381e-05, No Iterations 5
DICPCG:  Solving for p, Initial residual = 5.64661e-05, Final residual = 2.57856e-06, No Iterations 21
DICPCG:  Solving for p, Initial residual = 1.2958e-05, Final residual = 9.34138e-07, No Iterations 37
time step continuity errors : sum local = 2.08594e-10, global = -1.32655e-11, cumulative = -2.07906e-09
ExecutionTime = 0.1 s  ClockTime = 0 s

Time = 11.85

Courant Number mean: 0.0809654 max: 0.506174
smoothSolver:  Solving for Ux, Initial residual = 0.000927127, Final residual = 1.60622e-06, No Iterations 1
smoothSolver:  Solving for Uy, Initial residual = 0.000623307, Final residual = 1.29811e-06, No Iterations 1
DICPCG:  Solving for p, Initial residual = 0.00702369, Final residual = 0.00021281, No Iterations 5
DICPCG:  Solving for p, Initial residual = 0.00109055, Final residual = 5.03977e-05, No Iterations 7
DICPCG:  Solving for p, Initial residual = 0.000164451, Final residual = 8.16994e-06, No Iterations 19
time step continuity errors : sum local = 1.81965e-09, global = 9.74322e-11, cumulative = -1.98162e-09
DICPCG:  Solving for p, Initial residual = 0.000355291, Final residual = 1.05944e-05, No Iterations 5
DICPCG:  Solving for p, Initial residual = 5.71333e-05, Final residual = 2.68259e-06, No Iterations 20
DICPCG:  Solving for p, Initial residual = 1.51432e-05, Final residual = 7.53143e-07, No Iterations 11
time step continuity errors : sum local = 1.6776e-10, global = 3.66906e-11, cumulative = -1.94493e-09
ExecutionTime = 0.1 s  ClockTime = 0 s

Time = 11.9

Courant Number mean: 0.0809689 max: 0.506213
smoothSolver:  Solving for Ux, Initial residual = 0.000928011, Final residual = 1.59126e-06, No Iterations 1
smoothSolver:  Solving for Uy, Initial residual = 0.000621783, Final residual = 1.28572e-06, No Iterations 1
DICPCG:  Solving for p, Initial residual = 0.00834247, Final residual = 0.000348624, No Iterations 4
DICPCG:  Solving for p, Initial residual = 0.00116975, Final residual = 5.66732e-05, No Iterations 7
DICPCG:  Solving for p, Initial residual = 0.000182045, Final residual = 7.98398e-06, No Iterations 24
time step continuity errors : sum local = 1.77374e-09, global = 1.42819e-10, cumulative = -1.80211e-09
DICPCG:  Solving for p, Initial residual = 0.000381398, Final residual = 1.68014e-05, No Iterations 4
DICPCG:  Solving for p, Initial residual = 5.93588e-05, Final residual = 2.80194e-06, No Iterations 10
DICPCG:  Solving for p, Initial residual = 1.19645e-05, Final residual = 8.3952e-07, No Iterations 46
time step continuity errors : sum local = 1.86526e-10, global = 9.16665e-12, cumulative = -1.79295e-09
ExecutionTime = 0.1 s  ClockTime = 0 s

Time = 11.95

Courant Number mean: 0.0809722 max: 0.506251
smoothSolver:  Solving for Ux, Initial residual = 0.000928874, Final residual = 1.57049e-06, No Iterations 1
smoothSolver:  Solving for Uy, Initial residual = 0.000620073, Final residual = 1.27572e-06, No Iterations 1
DICPCG:  Solving for p, Initial residual = 0.00671017, Final residual = 0.00020148, No Iterations 5
DICPCG:  Solving for p, Initial residual = 0.00102786, Final residual = 4.76927e-05, No Iterations 6
DICPCG:  Solving for p, Initial residual = 0.000163493, Final residual = 7.72315e-06, No Iterations 29
time step continuity errors : sum local = 1.71497e-09, global = 2.70474e-10, cumulative = -1.52247e-09
DICPCG:  Solving for p, Initial residual = 0.000335813, Final residual = 1.56497e-05, No Iterations 4
DICPCG:  Solving for p, Initial residual = 5.58564e-05, Final residual = 2.79024e-06, No Iterations 45
DICPCG:  Solving for p, Initial residual = 2.04095e-05, Final residual = 9.95334e-07, No Iterations 6
time step continuity errors : sum local = 2.2099e-10, global = -1.14061e-11, cumulative = -1.53388e-09
ExecutionTime = 0.1 s  ClockTime = 0 s

Time = 12

Courant Number mean: 0.0809752 max: 0.506288
smoothSolver:  Solving for Ux, Initial residual = 0.000930379, Final residual = 1.54049e-06, No Iterations 1
smoothSolver:  Solving for Uy, Initial residual = 0.000618386, Final residual = 1.26473e-06, No Iterations 1
DICPCG:  Solving for p, Initial residual = 0.00656996, Final residual = 0.000208191, No Iterations 5
DICPCG:  Solving for p, Initial residual = 0.00100557, Final residual = 4.58802e-05, No Iterations 6
DICPCG:  Solving for p, Initial residual = 0.000164198, Final residual = 7.50467e-06, No Iterations 56
time step continuity errors : sum local = 1.66419e-09, global = 3.17209e-11, cumulative = -1.50216e-09
DICPCG:  Solving for p, Initial residual = 0.000321671, Final residual = 1.50587e-05, No Iterations 4
DICPCG:  Solving for p, Initial residual = 5.54412e-05, Final residual = 2.51035e-06, No Iterations 13
DICPCG:  Solving for p, Initial residual = 1.28823e-05, Final residual = 9.8997e-07, No Iterations 36
time step continuity errors : sum local = 2.19478e-10, global = -2.47187e-12, cumulative = -1.50463e-09
ExecutionTime = 0.11 s  ClockTime = 0 s

Time = 12.05

Courant Number mean: 0.0809781 max: 0.506323
smoothSolver:  Solving for Ux, Initial residual = 0.000932541, Final residual = 1.50869e-06, No Iterations 1
smoothSolver:  Solving for Uy, Initial residual = 0.000616006, Final residual = 1.24983e-06, No Iterations 1
DICPCG:  Solving for p, Initial residual = 0.00598657, Final residual = 0.000207395, No Iterations 5
DICPCG:  Solving for p, Initial residual = 0.000963937, Final residual = 4.30112e-05, No Iterations 7
DICPCG:  Solving for p, Initial residual = 0.000153435, Final residual = 6.41153e-06, No Iterations 24
time step continuity errors : sum local = 1.42131e-09, global = 2.62001e-10, cumulative = -1.24263e-09
DICPCG:  Solving for p, Initial residual = 0.000308233, Final residual = 1.4513e-05, No Iterations 4
DICPCG:  Solving for p, Initial residual = 5.38561e-05, Final residual = 2.50409e-06, No Iterations 51
DICPCG:  Solving for p, Initial residual = 1.62828e-05, Final residual = 8.0083e-07, No Iterations 10
time step continuity errors : sum local = 1.77517e-10, global = -1.73306e-11, cumulative = -1.25996e-09
ExecutionTime = 0.11 s  ClockTime = 0 s

Time = 12.1

Courant Number mean: 0.0809808 max: 0.506356
smoothSolver:  Solving for Ux, Initial residual = 0.000932815, Final residual = 1.49117e-06, No Iterations 1
smoothSolver:  Solving for Uy, Initial residual = 0.000613607, Final residual = 1.23504e-06, No Iterations 1
DICPCG:  Solving for p, Initial residual = 0.00570761, Final residual = 0.000213644, No Iterations 5
DICPCG:  Solving for p, Initial residual = 0.000954911, Final residual = 4.33166e-05, No Iterations 9
DICPCG:  Solving for p, Initial residual = 0.000163408, Final residual = 6.9961e-06, No Iterations 20
time step continuity errors : sum local = 1.54951e-09, global = 1.64353e-10, cumulative = -1.09561e-09
DICPCG:  Solving for p, Initial residual = 0.000289106, Final residual = 1.43248e-05, No Iterations 4
DICPCG:  Solving for p, Initial residual = 5.29349e-05, Final residual = 2.63192e-06, No Iterations 17
DICPCG:  Solving for p, Initial residual = 1.27216e-05, Final residual = 9.57963e-07, No Iterations 26
time step continuity errors : sum local = 2.12187e-10, global = 2.23986e-11, cumulative = -1.07321e-09
ExecutionTime = 0.11 s  ClockTime = 0 s

Time = 12.15

Courant Number mean: 0.0809832 max: 0.506388
smoothSolver:  Solving for Ux, Initial residual = 0.000931953, Final residual = 1.47907e-06, No Iterations 1
smoothSolver:  Solving for Uy, Initial residual = 0.000610915, Final residual = 1.21757e-06, No Iterations 1
DICPCG:  Solving for p, Initial residual = 0.00571159, Final residual = 0.00021018, No Iterations 5
DICPCG:  Solving for p, Initial residual = 0.000946942, Final residual = 4.51415e-05, No Iterations 9
DICPCG:  Solving for p, Initial residual = 0.000168185, Final residual = 7.34685e-06, No Iterations 23
time step continuity errors : sum local = 1.62637e-09, global = 1.68593e-10, cumulative = -9.04616e-10
DICPCG:  Solving for p, Initial residual = 0.000286691, Final residual = 1.37274e-05, No Iterations 4
DICPCG:  Solving for p, Initial residual = 5.30113e-05, Final residual = 2.41551e-06, No Iterations 51
DICPCG:  Solving for p, Initial residual = 1.45351e-05, Final residual = 8.83041e-07, No Iterations 9
time step continuity errors : sum local = 1.95463e-10, global = -1.70325e-11, cumulative = -9.21648e-10
ExecutionTime = 0.11 s  ClockTime = 0 s

Time = 12.2

Courant Number mean: 0.0809858 max: 0.506418
smoothSolver:  Solving for Ux, Initial residual = 0.000932062, Final residual = 1.48328e-06, No Iterations 1
smoothSolver:  Solving for Uy, Initial residual = 0.000608004, Final residual = 1.19835e-06, No Iterations 1
DICPCG:  Solving for p, Initial residual = 0.00616762, Final residual = 0.000199551, No Iterations 5
DICPCG:  Solving for p, Initial residual = 0.000946872, Final residual = 4.67593e-05, No Iterations 8
DICPCG:  Solving for p, Initial residual = 0.000157132, Final residual = 7.40639e-06, No Iterations 21
time step continuity errors : sum local = 1.63812e-09, global = 1.76568e-10, cumulative = -7.4508e-10
DICPCG:  Solving for p, Initial residual = 0.000292194, Final residual = 1.32697e-05, No Iterations 4
DICPCG:  Solving for p, Initial residual = 5.32114e-05, Final residual = 2.55641e-06, No Iterations 51
DICPCG:  Solving for p, Initial residual = 1.50834e-05, Final residual = 9.58101e-07, No Iterations 9
time step continuity errors : sum local = 2.119e-10, global = -1.54958e-11, cumulative = -7.60576e-10
ExecutionTime = 0.12 s  ClockTime = 0 s

Time = 12.25

Courant Number mean: 0.0809884 max: 0.506447
smoothSolver:  Solving for Ux, Initial residual = 0.000931928, Final residual = 1.48253e-06, No Iterations 1
smoothSolver:  Solving for Uy, Initial residual = 0.000604937, Final residual = 1.1733e-06, No Iterations 1
DICPCG:  Solving for p, Initial residual = 0.00688905, Final residual = 0.000294931, No Iterations 4
DICPCG:  Solving for p, Initial residual = 0.00104514, Final residual = 4.78587e-05, No Iterations 8
DICPCG:  Solving for p, Initial residual = 0.000173985, Final residual = 8.30707e-06, No Iterations 20
time step continuity errors : sum local = 1.83866e-09, global = -4.84048e-11, cumulative = -8.08981e-10
DICPCG:  Solving for p, Initial residual = 0.00032379, Final residual = 1.19836e-05, No Iterations 4
DICPCG:  Solving for p, Initial residual = 5.4252e-05, Final residual = 2.49684e-06, No Iterations 21
DICPCG:  Solving for p, Initial residual = 1.35348e-05, Final residual = 8.12842e-07, No Iterations 36
time step continuity errors : sum local = 1.79934e-10, global = -2.46294e-12, cumulative = -8.11444e-10
ExecutionTime = 0.12 s  ClockTime = 0 s

Time = 12.3

Courant Number mean: 0.0809908 max: 0.506474
smoothSolver:  Solving for Ux, Initial residual = 0.000931404, Final residual = 1.47379e-06, No Iterations 1
smoothSolver:  Solving for Uy, Initial residual = 0.000601392, Final residual = 1.14797e-06, No Iterations 1
DICPCG:  Solving for p, Initial residual = 0.007109, Final residual = 0.000293994, No Iterations 4
DICPCG:  Solving for p, Initial residual = 0.00105057, Final residual = 4.96971e-05, No Iterations 6
DICPCG:  Solving for p, Initial residual = 0.00018168, Final residual = 9.0668e-06, No Iterations 22
time step continuity errors : sum local = 2.00978e-09, global = 1.65247e-10, cumulative = -6.46197e-10
DICPCG:  Solving for p, Initial residual = 0.000347347, Final residual = 1.28103e-05, No Iterations 4
DICPCG:  Solving for p, Initial residual = 5.70233e-05, Final residual = 2.31488e-06, No Iterations 21
DICPCG:  Solving for p, Initial residual = 1.29149e-05, Final residual = 9.25044e-07, No Iterations 41
time step continuity errors : sum local = 2.05078e-10, global = -1.48996e-11, cumulative = -6.61097e-10
ExecutionTime = 0.12 s  ClockTime = 0 s

Time = 12.35

Courant Number mean: 0.080993 max: 0.506499
smoothSolver:  Solving for Ux, Initial residual = 0.00093137, Final residual = 1.46889e-06, No Iterations 1
smoothSolver:  Solving for Uy, Initial residual = 0.000597959, Final residual = 1.1298e-06, No Iterations 1
DICPCG:  Solving for p, Initial residual = 0.00692894, Final residual = 0.000284039, No Iterations 4
DICPCG:  Solving for p, Initial residual = 0.00102798, Final residual = 4.83598e-05, No Iterations 6
DICPCG:  Solving for p, Initial residual = 0.000175718, Final residual = 8.39683e-06, No Iterations 25
time step continuity errors : sum local = 1.86455e-09, global = 2.43906e-10, cumulative = -4.17191e-10
DICPCG:  Solving for p, Initial residual = 0.000331909, Final residual = 1.17529e-05, No Iterations 4
DICPCG:  Solving for p, Initial residual = 5.49929e-05, Final residual = 2.40003e-06, No Iterations 39
DICPCG:  Solving for p, Initial residual = 1.60782e-05, Final residual = 9.3855e-07, No Iterations 16
time step continuity errors : sum local = 2.08406e-10, global = -7.11443e-12, cumulative = -4.24305e-10
ExecutionTime = 0.12 s  ClockTime = 0 s

Time = 12.4

Courant Number mean: 0.0809952 max: 0.506523
smoothSolver:  Solving for Ux, Initial residual = 0.00093011, Final residual = 1.47004e-06, No Iterations 1
smoothSolver:  Solving for Uy, Initial residual = 0.000594198, Final residual = 1.11477e-06, No Iterations 1
DICPCG:  Solving for p, Initial residual = 0.00685867, Final residual = 0.000271242, No Iterations 4
DICPCG:  Solving for p, Initial residual = 0.00103412, Final residual = 4.3444e-05, No Iterations 6
DICPCG:  Solving for p, Initial residual = 0.000170944, Final residual = 7.98431e-06, No Iterations 50
time step continuity errors : sum local = 1.77582e-09, global = -2.27025e-11, cumulative = -4.47008e-10
DICPCG:  Solving for p, Initial residual = 0.000321371, Final residual = 1.15727e-05, No Iterations 4
DICPCG:  Solving for p, Initial residual = 5.4328e-05, Final residual = 2.50664e-06, No Iterations 10
DICPCG:  Solving for p, Initial residual = 9.09202e-06, Final residual = 8.88644e-07, No Iterations 44
time step continuity errors : sum local = 1.97623e-10, global = 1.34341e-12, cumulative = -4.45665e-10
ExecutionTime = 0.13 s  ClockTime = 0 s

Time = 12.45

Courant Number mean: 0.0809972 max: 0.506545
smoothSolver:  Solving for Ux, Initial residual = 0.000928729, Final residual = 1.47998e-06, No Iterations 1
smoothSolver:  Solving for Uy, Initial residual = 0.000590634, Final residual = 1.10334e-06, No Iterations 1
DICPCG:  Solving for p, Initial residual = 0.00677406, Final residual = 0.000264518, No Iterations 4
DICPCG:  Solving for p, Initial residual = 0.00101911, Final residual = 4.19679e-05, No Iterations 6
DICPCG:  Solving for p, Initial residual = 0.000169887, Final residual = 8.3738e-06, No Iterations 50
time step continuity errors : sum local = 1.86572e-09, global = -1.86425e-11, cumulative = -4.64307e-10
DICPCG:  Solving for p, Initial residual = 0.000318124, Final residual = 1.12991e-05, No Iterations 4
DICPCG:  Solving for p, Initial residual = 5.47208e-05, Final residual = 2.61081e-06, No Iterations 11
DICPCG:  Solving for p, Initial residual = 9.73666e-06, Final residual = 9.7984e-07, No Iterations 18
time step continuity errors : sum local = 2.18282e-10, global = -4.02478e-11, cumulative = -5.04555e-10
ExecutionTime = 0.13 s  ClockTime = 0 s

Time = 12.5

Courant Number mean: 0.080999 max: 0.506566
smoothSolver:  Solving for Ux, Initial residual = 0.000928934, Final residual = 1.48608e-06, No Iterations 1
smoothSolver:  Solving for Uy, Initial residual = 0.000587469, Final residual = 1.09296e-06, No Iterations 1
DICPCG:  Solving for p, Initial residual = 0.0079328, Final residual = 0.000295598, No Iterations 4
DICPCG:  Solving for p, Initial residual = 0.00108809, Final residual = 4.61091e-05, No Iterations 6
DICPCG:  Solving for p, Initial residual = 0.000181202, Final residual = 7.01204e-06, No Iterations 50
time step continuity errors : sum local = 1.56658e-09, global = 3.87787e-11, cumulative = -4.65776e-10
DICPCG:  Solving for p, Initial residual = 0.000362892, Final residual = 1.14417e-05, No Iterations 4
DICPCG:  Solving for p, Initial residual = 5.98359e-05, Final residual = 2.80185e-06, No Iterations 8
DICPCG:  Solving for p, Initial residual = 9.7039e-06, Final residual = 9.12186e-07, No Iterations 21
time step continuity errors : sum local = 2.03741e-10, global = -2.40556e-11, cumulative = -4.89832e-10
ExecutionTime = 0.13 s  ClockTime = 0 s

Time = 12.55

Courant Number mean: 0.0810008 max: 0.506585
smoothSolver:  Solving for Ux, Initial residual = 0.000923137, Final residual = 1.48076e-06, No Iterations 1
smoothSolver:  Solving for Uy, Initial residual = 0.000583353, Final residual = 1.03318e-06, No Iterations 1
DICPCG:  Solving for p, Initial residual = 0.00823345, Final residual = 0.000323676, No Iterations 4
DICPCG:  Solving for p, Initial residual = 0.00111736, Final residual = 5.41258e-05, No Iterations 9
DICPCG:  Solving for p, Initial residual = 0.000193219, Final residual = 9.00472e-06, No Iterations 52
time step continuity errors : sum local = 2.00944e-09, global = 8.37e-11, cumulative = -4.06132e-10
DICPCG:  Solving for p, Initial residual = 0.000345245, Final residual = 1.36413e-05, No Iterations 4
DICPCG:  Solving for p, Initial residual = 5.44863e-05, Final residual = 2.69152e-06, No Iterations 11
DICPCG:  Solving for p, Initial residual = 1.10051e-05, Final residual = 8.70478e-07, No Iterations 25
time step continuity errors : sum local = 1.94163e-10, global = -2.99215e-11, cumulative = -4.36053e-10
ExecutionTime = 0.13 s  ClockTime = 0 s

Time = 12.6

Courant Number mean: 0.0810026 max: 0.506602
smoothSolver:  Solving for Ux, Initial residual = 0.000916977, Final residual = 1.47387e-06, No Iterations 1
smoothSolver:  Solving for Uy, Initial residual = 0.000580141, Final residual = 1.00614e-06, No Iterations 1
DICPCG:  Solving for p, Initial residual = 0.00687538, Final residual = 0.000318082, No Iterations 4
DICPCG:  Solving for p, Initial residual = 0.00107408, Final residual = 4.56722e-05, No Iterations 10
DICPCG:  Solving for p, Initial residual = 0.000186237, Final residual = 8.33276e-06, No Iterations 49
time step continuity errors : sum local = 1.85656e-09, global = 4.9219e-11, cumulative = -3.86834e-10
DICPCG:  Solving for p, Initial residual = 0.000323235, Final residual = 1.26702e-05, No Iterations 4
DICPCG:  Solving for p, Initial residual = 5.01338e-05, Final residual = 2.3358e-06, No Iterations 10
DICPCG:  Solving for p, Initial residual = 9.62877e-06, Final residual = 9.80338e-07, No Iterations 22
time step continuity errors : sum local = 2.18344e-10, global = -3.75356e-11, cumulative = -4.2437e-10
ExecutionTime = 0.13 s  ClockTime = 0 s

Time = 12.65

Courant Number mean: 0.0810043 max: 0.506618
smoothSolver:  Solving for Ux, Initial residual = 0.000912689, Final residual = 1.46457e-06, No Iterations 1
smoothSolver:  Solving for Uy, Initial residual = 0.000577448, Final residual = 1.00425e-06, No Iterations 1
DICPCG:  Solving for p, Initial residual = 0.006415, Final residual = 0.000250449, No Iterations 5
DICPCG:  Solving for p, Initial residual = 0.00108371, Final residual = 4.75818e-05, No Iterations 11
DICPCG:  Solving for p, Initial residual = 0.000188117, Final residual = 6.9933e-06, No Iterations 27
time step continuity errors : sum local = 1.55832e-09, global = -2.81942e-10, cumulative = -7.06312e-10
DICPCG:  Solving for p, Initial residual = 0.000342138, Final residual = 1.63393e-05, No Iterations 4
DICPCG:  Solving for p, Initial residual = 5.39729e-05, Final residual = 2.50755e-06, No Iterations 43
DICPCG:  Solving for p, Initial residual = 1.78572e-05, Final residual = 9.86226e-07, No Iterations 19
time step continuity errors : sum local = 2.19809e-10, global = 8.15473e-12, cumulative = -6.98157e-10
ExecutionTime = 0.14 s  ClockTime = 0 s

Time = 12.7

Courant Number mean: 0.0810059 max: 0.506633
smoothSolver:  Solving for Ux, Initial residual = 0.000908843, Final residual = 1.45392e-06, No Iterations 1
smoothSolver:  Solving for Uy, Initial residual = 0.00057464, Final residual = 1.00454e-06, No Iterations 1
DICPCG:  Solving for p, Initial residual = 0.0061014, Final residual = 0.00023952, No Iterations 5
DICPCG:  Solving for p, Initial residual = 0.00105514, Final residual = 4.45734e-05, No Iterations 11
DICPCG:  Solving for p, Initial residual = 0.000179778, Final residual = 8.92762e-06, No Iterations 20
time step continuity errors : sum local = 1.98996e-09, global = -9.76634e-11, cumulative = -7.95821e-10
DICPCG:  Solving for p, Initial residual = 0.000328995, Final residual = 1.60693e-05, No Iterations 4
DICPCG:  Solving for p, Initial residual = 5.23901e-05, Final residual = 2.59425e-06, No Iterations 54
DICPCG:  Solving for p, Initial residual = 1.8343e-05, Final residual = 7.62342e-07, No Iterations 8
time step continuity errors : sum local = 1.69952e-10, global = -3.27898e-12, cumulative = -7.991e-10
ExecutionTime = 0.14 s  ClockTime = 0 s

Time = 12.75

Courant Number mean: 0.0810086 max: 0.506647
smoothSolver:  Solving for Ux, Initial residual = 0.000905947, Final residual = 1.44251e-06, No Iterations 1
smoothSolver:  Solving for Uy, Initial residual = 0.000572206, Final residual = 1.00571e-06, No Iterations 1
DICPCG:  Solving for p, Initial residual = 0.00582634, Final residual = 0.000227374, No Iterations 5
DICPCG:  Solving for p, Initial residual = 0.00100559, Final residual = 4.58068e-05, No Iterations 10
DICPCG:  Solving for p, Initial residual = 0.00017236, Final residual = 8.4398e-06, No Iterations 23
time step continuity errors : sum local = 1.88057e-09, global = 2.42555e-11, cumulative = -7.74844e-10
DICPCG:  Solving for p, Initial residual = 0.000313984, Final residual = 1.47693e-05, No Iterations 4
DICPCG:  Solving for p, Initial residual = 4.99947e-05, Final residual = 1.83215e-06, No Iterations 18
DICPCG:  Solving for p, Initial residual = 1.10019e-05, Final residual = 9.44035e-07, No Iterations 5
time step continuity errors : sum local = 2.10367e-10, global = 1.64835e-11, cumulative = -7.58361e-10
ExecutionTime = 0.14 s  ClockTime = 0 s

Time = 12.8

Courant Number mean: 0.0810115 max: 0.50666
smoothSolver:  Solving for Ux, Initial residual = 0.000904719, Final residual = 1.44005e-06, No Iterations 1
smoothSolver:  Solving for Uy, Initial residual = 0.000570095, Final residual = 1.00793e-06, No Iterations 1
DICPCG:  Solving for p, Initial residual = 0.0063646, Final residual = 0.000297332, No Iterations 4
DICPCG:  Solving for p, Initial residual = 0.00104686, Final residual = 4.36089e-05, No Iterations 16
DICPCG:  Solving for p, Initial residual = 0.00018699, Final residual = 9.13756e-06, No Iterations 20
time step continuity errors : sum local = 2.0362e-09, global = -3.53031e-10, cumulative = -1.11139e-09
DICPCG:  Solving for p, Initial residual = 0.000314408, Final residual = 1.3705e-05, No Iterations 5
DICPCG:  Solving for p, Initial residual = 5.04989e-05, Final residual = 2.16728e-06, No Iterations 43
DICPCG:  Solving for p, Initial residual = 2.10195e-05, Final residual = 9.55203e-07, No Iterations 10
time step continuity errors : sum local = 2.12927e-10, global = 2.78459e-11, cumulative = -1.08355e-09
ExecutionTime = 0.14 s  ClockTime = 0 s

Time = 12.85

Courant Number mean: 0.0810143 max: 0.506672
smoothSolver:  Solving for Ux, Initial residual = 0.000903454, Final residual = 1.44134e-06, No Iterations 1
smoothSolver:  Solving for Uy, Initial residual = 0.000569525, Final residual = 1.00789e-06, No Iterations 1
DICPCG:  Solving for p, Initial residual = 0.00584325, Final residual = 0.000270728, No Iterations 4
DICPCG:  Solving for p, Initial residual = 0.000914569, Final residual = 4.34826e-05, No Iterations 10
DICPCG:  Solving for p, Initial residual = 0.000156792, Final residual = 6.29299e-06, No Iterations 46
time step continuity errors : sum local = 1.4006e-09, global = -1.43564e-11, cumulative = -1.0979e-09
DICPCG:  Solving for p, Initial residual = 0.000311489, Final residual = 1.48894e-05, No Iterations 4
DICPCG:  Solving for p, Initial residual = 4.72564e-05, Final residual = 2.22849e-06, No Iterations 11
DICPCG:  Solving for p, Initial residual = 9.8521e-06, Final residual = 8.285e-07, No Iterations 40
time step continuity errors : sum local = 1.8428e-10, global = 1.72135e-12, cumulative = -1.09618e-09
ExecutionTime = 0.14 s  ClockTime = 0 s

Time = 12.9

Courant Number mean: 0.081017 max: 0.506683
smoothSolver:  Solving for Ux, Initial residual = 0.000905838, Final residual = 1.45374e-06, No Iterations 1
smoothSolver:  Solving for Uy, Initial residual = 0.000568044, Final residual = 1.01045e-06, No Iterations 1
DICPCG:  Solving for p, Initial residual = 0.00571179, Final residual = 0.000256691, No Iterations 4
DICPCG:  Solving for p, Initial residual = 0.000886327, Final residual = 4.0996e-05, No Iterations 10
DICPCG:  Solving for p, Initial residual = 0.00015207, Final residual = 5.87434e-06, No Iterations 46
time step continuity errors : sum local = 1.30544e-09, global = -8.73754e-11, cumulative = -1.18356e-09
DICPCG:  Solving for p, Initial residual = 0.000302491, Final residual = 1.43686e-05, No Iterations 4
DICPCG:  Solving for p, Initial residual = 4.6981e-05, Final residual = 2.33691e-06, No Iterations 18
DICPCG:  Solving for p, Initial residual = 9.90457e-06, Final residual = 8.26266e-07, No Iterations 22
time step continuity errors : sum local = 1.83509e-10, global = -2.95292e-11, cumulative = -1.21309e-09
ExecutionTime = 0.15 s  ClockTime = 0 s

Time = 12.95

Courant Number mean: 0.0810197 max: 0.506693
smoothSolver:  Solving for Ux, Initial residual = 0.000909056, Final residual = 1.48832e-06, No Iterations 1
smoothSolver:  Solving for Uy, Initial residual = 0.000566513, Final residual = 1.01037e-06, No Iterations 1
DICPCG:  Solving for p, Initial residual = 0.00605851, Final residual = 0.000258218, No Iterations 4
DICPCG:  Solving for p, Initial residual = 0.000904859, Final residual = 3.8567e-05, No Iterations 11
DICPCG:  Solving for p, Initial residual = 0.000167275, Final residual = 7.81359e-06, No Iterations 48
time step continuity errors : sum local = 1.73426e-09, global = -8.85377e-11, cumulative = -1.30162e-09
DICPCG:  Solving for p, Initial residual = 0.00033752, Final residual = 1.60869e-05, No Iterations 4
DICPCG:  Solving for p, Initial residual = 5.14884e-05, Final residual = 2.46624e-06, No Iterations 18
DICPCG:  Solving for p, Initial residual = 1.23911e-05, Final residual = 9.75747e-07, No Iterations 20
time step continuity errors : sum local = 2.16445e-10, global = -2.59381e-11, cumulative = -1.32756e-09
ExecutionTime = 0.15 s  ClockTime = 0 s

Time = 13

Courant Number mean: 0.0810232 max: 0.506703
smoothSolver:  Solving for Ux, Initial residual = 0.000909799, Final residual = 1.47512e-06, No Iterations 1
smoothSolver:  Solving for Uy, Initial residual = 0.000564849, Final residual = 1.01738e-06, No Iterations 1
DICPCG:  Solving for p, Initial residual = 0.00573461, Final residual = 0.00023187, No Iterations 4
DICPCG:  Solving for p, Initial residual = 0.000841392, Final residual = 3.83529e-05, No Iterations 10
DICPCG:  Solving for p, Initial residual = 0.000150154, Final residual = 6.55276e-06, No Iterations 49
time step continuity errors : sum local = 1.45221e-09, global = -3.4573e-12, cumulative = -1.33102e-09
DICPCG:  Solving for p, Initial residual = 0.000300503, Final residual = 1.38212e-05, No Iterations 4
DICPCG:  Solving for p, Initial residual = 4.72311e-05, Final residual = 2.24289e-06, No Iterations 18
DICPCG:  Solving for p, Initial residual = 1.062e-05, Final residual = 9.94041e-07, No Iterations 21
time step continuity errors : sum local = 2.20165e-10, global = -2.99252e-11, cumulative = -1.36094e-09
ExecutionTime = 0.15 s  ClockTime = 0 s

Time = 13.05

Courant Number mean: 0.0810293 max: 0.506712
smoothSolver:  Solving for Ux, Initial residual = 0.000910082, Final residual = 1.5487e-06, No Iterations 1
smoothSolver:  Solving for Uy, Initial residual = 0.000562129, Final residual = 1.03015e-06, No Iterations 1
DICPCG:  Solving for p, Initial residual = 0.0089942, Final residual = 0.000420034, No Iterations 4
DICPCG:  Solving for p, Initial residual = 0.00127472, Final residual = 5.23761e-05, No Iterations 18
DICPCG:  Solving for p, Initial residual = 0.000291857, Final residual = 1.28094e-05, No Iterations 21
time step continuity errors : sum local = 2.83555e-09, global = -4.48117e-10, cumulative = -1.80906e-09
DICPCG:  Solving for p, Initial residual = 0.000459882, Final residual = 1.87674e-05, No Iterations 8
DICPCG:  Solving for p, Initial residual = 8.81227e-05, Final residual = 3.85882e-06, No Iterations 19
DICPCG:  Solving for p, Initial residual = 2.51791e-05, Final residual = 9.06415e-07, No Iterations 53
time step continuity errors : sum local = 2.00689e-10, global = -6.73729e-12, cumulative = -1.8158e-09
ExecutionTime = 0.16 s  ClockTime = 0 s

Time = 13.1

Courant Number mean: 0.0810353 max: 0.506721
smoothSolver:  Solving for Ux, Initial residual = 0.000909589, Final residual = 1.54009e-06, No Iterations 1
smoothSolver:  Solving for Uy, Initial residual = 0.000559106, Final residual = 1.02645e-06, No Iterations 1
DICPCG:  Solving for p, Initial residual = 0.00659023, Final residual = 0.000328487, No Iterations 3
DICPCG:  Solving for p, Initial residual = 0.00097476, Final residual = 4.5788e-05, No Iterations 10
DICPCG:  Solving for p, Initial residual = 0.000200232, Final residual = 7.60949e-06, No Iterations 54
time step continuity errors : sum local = 1.68327e-09, global = -1.01058e-11, cumulative = -1.8259e-09
DICPCG:  Solving for p, Initial residual = 0.000334354, Final residual = 1.42921e-05, No Iterations 3
DICPCG:  Solving for p, Initial residual = 5.10849e-05, Final residual = 2.31856e-06, No Iterations 11
DICPCG:  Solving for p, Initial residual = 9.33706e-06, Final residual = 8.87054e-07, No Iterations 48
time step continuity errors : sum local = 1.96074e-10, global = 7.05481e-12, cumulative = -1.81885e-09
ExecutionTime = 0.16 s  ClockTime = 0 s

Time = 13.15

Courant Number mean: 0.0810414 max: 0.506729
smoothSolver:  Solving for Ux, Initial residual = 0.000909067, Final residual = 1.53209e-06, No Iterations 1
smoothSolver:  Solving for Uy, Initial residual = 0.000557431, Final residual = 1.02442e-06, No Iterations 1
DICPCG:  Solving for p, Initial residual = 0.0058756, Final residual = 0.000223358, No Iterations 4
DICPCG:  Solving for p, Initial residual = 0.000836871, Final residual = 3.92413e-05, No Iterations 9
DICPCG:  Solving for p, Initial residual = 0.000141529, Final residual = 5.0963e-06, No Iterations 47
time step continuity errors : sum local = 1.12461e-09, global = 4.83911e-12, cumulative = -1.81401e-09
DICPCG:  Solving for p, Initial residual = 0.000292073, Final residual = 1.4525e-05, No Iterations 3
DICPCG:  Solving for p, Initial residual = 5.01049e-05, Final residual = 2.18921e-06, No Iterations 8
DICPCG:  Solving for p, Initial residual = 8.42412e-06, Final residual = 8.92592e-07, No Iterations 20
time step continuity errors : sum local = 1.96892e-10, global = -3.35766e-11, cumulative = -1.84759e-09
ExecutionTime = 0.16 s  ClockTime = 0 s

Time = 13.2

Courant Number mean: 0.0810474 max: 0.506737
smoothSolver:  Solving for Ux, Initial residual = 0.000906089, Final residual = 1.52077e-06, No Iterations 1
smoothSolver:  Solving for Uy, Initial residual = 0.000556067, Final residual = 1.02627e-06, No Iterations 1
DICPCG:  Solving for p, Initial residual = 0.00793512, Final residual = 0.000364011, No Iterations 4
DICPCG:  Solving for p, Initial residual = 0.00121622, Final residual = 5.50171e-05, No Iterations 15
DICPCG:  Solving for p, Initial residual = 0.000260929, Final residual = 1.27055e-05, No Iterations 39
time step continuity errors : sum local = 2.79195e-09, global = 1.87427e-12, cumulative = -1.84571e-09
DICPCG:  Solving for p, Initial residual = 0.000359597, Final residual = 1.57097e-05, No Iterations 5
DICPCG:  Solving for p, Initial residual = 7.00358e-05, Final residual = 3.50004e-06, No Iterations 12
DICPCG:  Solving for p, Initial residual = 1.74858e-05, Final residual = 8.312e-07, No Iterations 53
time step continuity errors : sum local = 1.82878e-10, global = -5.87865e-12, cumulative = -1.85159e-09
ExecutionTime = 0.16 s  ClockTime = 0 s

Time = 13.25

Courant Number mean: 0.0810534 max: 0.506745
smoothSolver:  Solving for Ux, Initial residual = 0.00090423, Final residual = 1.52101e-06, No Iterations 1
smoothSolver:  Solving for Uy, Initial residual = 0.000554686, Final residual = 1.01873e-06, No Iterations 1
DICPCG:  Solving for p, Initial residual = 0.00650279, Final residual = 0.000267112, No Iterations 4
DICPCG:  Solving for p, Initial residual = 0.000882254, Final residual = 4.27691e-05, No Iterations 9
DICPCG:  Solving for p, Initial residual = 0.000154743, Final residual = 7.03998e-06, No Iterations 48
time step continuity errors : sum local = 1.54767e-09, global = -4.23639e-11, cumulative = -1.89395e-09
DICPCG:  Solving for p, Initial residual = 0.000303728, Final residual = 1.3513e-05, No Iterations 4
DICPCG:  Solving for p, Initial residual = 5.40436e-05, Final residual = 2.31367e-06, No Iterations 12
DICPCG:  Solving for p, Initial residual = 9.93303e-06, Final residual = 9.85418e-07, No Iterations 16
time step continuity errors : sum local = 2.16524e-10, global = -1.52115e-11, cumulative = -1.90917e-09
ExecutionTime = 0.16 s  ClockTime = 0 s

Time = 13.3

Courant Number mean: 0.0810593 max: 0.506753
smoothSolver:  Solving for Ux, Initial residual = 0.000904464, Final residual = 1.53071e-06, No Iterations 1
smoothSolver:  Solving for Uy, Initial residual = 0.000553184, Final residual = 1.0076e-06, No Iterations 1
DICPCG:  Solving for p, Initial residual = 0.00619025, Final residual = 0.000256261, No Iterations 4
DICPCG:  Solving for p, Initial residual = 0.000856298, Final residual = 3.48364e-05, No Iterations 11
DICPCG:  Solving for p, Initial residual = 0.000147984, Final residual = 6.2129e-06, No Iterations 50
time step continuity errors : sum local = 1.36428e-09, global = -4.34923e-11, cumulative = -1.95266e-09
DICPCG:  Solving for p, Initial residual = 0.000290747, Final residual = 1.43613e-05, No Iterations 4
DICPCG:  Solving for p, Initial residual = 5.29594e-05, Final residual = 2.39974e-06, No Iterations 12
DICPCG:  Solving for p, Initial residual = 9.3713e-06, Final residual = 8.35378e-07, No Iterations 16
time step continuity errors : sum local = 1.83393e-10, global = 1.86884e-11, cumulative = -1.93397e-09
ExecutionTime = 0.17 s  ClockTime = 0 s

Time = 13.35

Courant Number mean: 0.0810652 max: 0.506762
smoothSolver:  Solving for Ux, Initial residual = 0.000905357, Final residual = 1.53851e-06, No Iterations 1
smoothSolver:  Solving for Uy, Initial residual = 0.00055193, Final residual = 9.97033e-07, No Iterations 1
DICPCG:  Solving for p, Initial residual = 0.00618353, Final residual = 0.000242461, No Iterations 5
DICPCG:  Solving for p, Initial residual = 0.000848106, Final residual = 4.11045e-05, No Iterations 17
DICPCG:  Solving for p, Initial residual = 0.000171975, Final residual = 6.85991e-06, No Iterations 20
time step continuity errors : sum local = 1.50492e-09, global = -9.11069e-11, cumulative = -2.02508e-09
DICPCG:  Solving for p, Initial residual = 0.000321938, Final residual = 1.24422e-05, No Iterations 5
DICPCG:  Solving for p, Initial residual = 5.97455e-05, Final residual = 2.91938e-06, No Iterations 16
DICPCG:  Solving for p, Initial residual = 1.25388e-05, Final residual = 9.24289e-07, No Iterations 7
time step continuity errors : sum local = 2.02774e-10, global = -5.95492e-11, cumulative = -2.08463e-09
ExecutionTime = 0.17 s  ClockTime = 0 s

Time = 13.4

Courant Number mean: 0.081071 max: 0.506772
smoothSolver:  Solving for Ux, Initial residual = 0.000906484, Final residual = 1.55643e-06, No Iterations 1
smoothSolver:  Solving for Uy, Initial residual = 0.000550522, Final residual = 9.90847e-07, No Iterations 1
DICPCG:  Solving for p, Initial residual = 0.00602582, Final residual = 0.000300261, No Iterations 4
DICPCG:  Solving for p, Initial residual = 0.000856526, Final residual = 3.96674e-05, No Iterations 16
DICPCG:  Solving for p, Initial residual = 0.000175756, Final residual = 6.06425e-06, No Iterations 20
time step continuity errors : sum local = 1.32918e-09, global = -3.74364e-12, cumulative = -2.08837e-09
DICPCG:  Solving for p, Initial residual = 0.00030531, Final residual = 1.26885e-05, No Iterations 5
DICPCG:  Solving for p, Initial residual = 5.70605e-05, Final residual = 2.11493e-06, No Iterations 17
DICPCG:  Solving for p, Initial residual = 1.38499e-05, Final residual = 9.53565e-07, No Iterations 5
time step continuity errors : sum local = 2.09007e-10, global = 7.23543e-11, cumulative = -2.01602e-09
ExecutionTime = 0.17 s  ClockTime = 0 s

Time = 13.45

Courant Number mean: 0.0810767 max: 0.506783
smoothSolver:  Solving for Ux, Initial residual = 0.000906925, Final residual = 1.5792e-06, No Iterations 1
smoothSolver:  Solving for Uy, Initial residual = 0.000549779, Final residual = 9.8762e-07, No Iterations 1
DICPCG:  Solving for p, Initial residual = 0.0071994, Final residual = 0.00032814, No Iterations 4
DICPCG:  Solving for p, Initial residual = 0.000919434, Final residual = 4.40341e-05, No Iterations 16
DICPCG:  Solving for p, Initial residual = 0.000181251, Final residual = 6.40591e-06, No Iterations 20
time step continuity errors : sum local = 1.40341e-09, global = 6.67001e-13, cumulative = -2.01535e-09
DICPCG:  Solving for p, Initial residual = 0.000331107, Final residual = 1.39456e-05, No Iterations 5
DICPCG:  Solving for p, Initial residual = 5.48662e-05, Final residual = 2.2581e-06, No Iterations 17
DICPCG:  Solving for p, Initial residual = 1.3094e-05, Final residual = 9.36705e-07, No Iterations 40
time step continuity errors : sum local = 2.05208e-10, global = 1.21081e-11, cumulative = -2.00324e-09
ExecutionTime = 0.17 s  ClockTime = 0 s

Time = 13.5

Courant Number mean: 0.0810823 max: 0.506795
smoothSolver:  Solving for Ux, Initial residual = 0.000907089, Final residual = 1.58778e-06, No Iterations 1
smoothSolver:  Solving for Uy, Initial residual = 0.000547081, Final residual = 9.72968e-07, No Iterations 1
DICPCG:  Solving for p, Initial residual = 0.00922445, Final residual = 0.000421538, No Iterations 3
DICPCG:  Solving for p, Initial residual = 0.00115172, Final residual = 5.66977e-05, No Iterations 7
DICPCG:  Solving for p, Initial residual = 0.000268651, Final residual = 1.26905e-05, No Iterations 15
[...]
DICPCG:  Solving for p, Initial residual = 6.38413e-05, Final residual = 2.97359e-06, No Iterations 22
time step continuity errors : sum local = 7.03624e-10, global = -1.34409e-10, cumulative = 1.83403e-09
DICPCG:  Solving for p, Initial residual = 6.81264e-05, Final residual = 3.12579e-06, No Iterations 7
DICPCG:  Solving for p, Initial residual = 1.16404e-05, Final residual = 8.85167e-07, No Iterations 46
DICPCG:  Solving for p, Initial residual = 5.86457e-06, Final residual = 9.92806e-07, No Iterations 1
time step continuity errors : sum local = 2.34936e-10, global = 8.28337e-12, cumulative = 1.84231e-09
ExecutionTime = 4.75 s  ClockTime = 5 s

Time = 99.2

Courant Number mean: 0.0810505 max: 0.501902
smoothSolver:  Solving for Ux, Initial residual = 2.84047e-05, Final residual = 1.06357e-07, No Iterations 1
smoothSolver:  Solving for Uy, Initial residual = 1.27117e-05, Final residual = 4.00938e-08, No Iterations 1
DICPCG:  Solving for p, Initial residual = 0.0013131, Final residual = 5.60686e-05, No Iterations 7
DICPCG:  Solving for p, Initial residual = 0.000304257, Final residual = 1.49566e-05, No Iterations 16
DICPCG:  Solving for p, Initial residual = 7.71303e-05, Final residual = 3.32421e-06, No Iterations 47
time step continuity errors : sum local = 7.87202e-10, global = -7.65848e-12, cumulative = 1.83465e-09
DICPCG:  Solving for p, Initial residual = 7.24365e-05, Final residual = 3.46595e-06, No Iterations 5
DICPCG:  Solving for p, Initial residual = 1.00798e-05, Final residual = 8.43432e-07, No Iterations 13
DICPCG:  Solving for p, Initial residual = 3.19107e-06, Final residual = 6.85844e-07, No Iterations 1
time step continuity errors : sum local = 1.62451e-10, global = 5.76225e-12, cumulative = 1.84041e-09
ExecutionTime = 4.76 s  ClockTime = 5 s

Time = 99.25

Courant Number mean: 0.0810505 max: 0.501901
smoothSolver:  Solving for Ux, Initial residual = 2.76246e-05, Final residual = 1.0278e-07, No Iterations 1
smoothSolver:  Solving for Uy, Initial residual = 1.28731e-05, Final residual = 3.8363e-08, No Iterations 1
DICPCG:  Solving for p, Initial residual = 0.00141465, Final residual = 6.47112e-05, No Iterations 7
DICPCG:  Solving for p, Initial residual = 0.000323057, Final residual = 1.54114e-05, No Iterations 16
DICPCG:  Solving for p, Initial residual = 7.42375e-05, Final residual = 3.40184e-06, No Iterations 21
time step continuity errors : sum local = 8.05318e-10, global = 7.46807e-11, cumulative = 1.91509e-09
DICPCG:  Solving for p, Initial residual = 7.17821e-05, Final residual = 3.27532e-06, No Iterations 8
DICPCG:  Solving for p, Initial residual = 1.24427e-05, Final residual = 7.45137e-07, No Iterations 47
DICPCG:  Solving for p, Initial residual = 4.92576e-06, Final residual = 8.18884e-07, No Iterations 1
time step continuity errors : sum local = 1.93845e-10, global = 9.91525e-13, cumulative = 1.91609e-09
ExecutionTime = 4.77 s  ClockTime = 5 s

Time = 99.3

Courant Number mean: 0.0810504 max: 0.5019
smoothSolver:  Solving for Ux, Initial residual = 2.80581e-05, Final residual = 1.01433e-07, No Iterations 1
smoothSolver:  Solving for Uy, Initial residual = 1.26231e-05, Final residual = 3.8149e-08, No Iterations 1
DICPCG:  Solving for p, Initial residual = 0.0012547, Final residual = 4.82084e-05, No Iterations 7
DICPCG:  Solving for p, Initial residual = 0.000264056, Final residual = 1.12361e-05, No Iterations 16
DICPCG:  Solving for p, Initial residual = 6.23363e-05, Final residual = 2.97598e-06, No Iterations 49
time step continuity errors : sum local = 7.04868e-10, global = -2.39683e-11, cumulative = 1.89212e-09
DICPCG:  Solving for p, Initial residual = 6.64477e-05, Final residual = 3.04623e-06, No Iterations 5
DICPCG:  Solving for p, Initial residual = 9.20379e-06, Final residual = 9.53887e-07, No Iterations 14
DICPCG:  Solving for p, Initial residual = 3.21268e-06, Final residual = 7.08577e-07, No Iterations 1
time step continuity errors : sum local = 1.67862e-10, global = 9.82585e-12, cumulative = 1.90194e-09
ExecutionTime = 4.78 s  ClockTime = 5 s

Time = 99.35

Courant Number mean: 0.0810504 max: 0.501899
smoothSolver:  Solving for Ux, Initial residual = 2.70777e-05, Final residual = 9.75064e-08, No Iterations 1
smoothSolver:  Solving for Uy, Initial residual = 1.24045e-05, Final residual = 3.58441e-08, No Iterations 1
DICPCG:  Solving for p, Initial residual = 0.000935684, Final residual = 4.48677e-05, No Iterations 7
DICPCG:  Solving for p, Initial residual = 0.000216536, Final residual = 1.0234e-05, No Iterations 17
DICPCG:  Solving for p, Initial residual = 5.068e-05, Final residual = 2.24067e-06, No Iterations 20
time step continuity errors : sum local = 5.30695e-10, global = 4.51873e-12, cumulative = 1.90646e-09
DICPCG:  Solving for p, Initial residual = 4.89118e-05, Final residual = 2.19757e-06, No Iterations 7
DICPCG:  Solving for p, Initial residual = 8.10073e-06, Final residual = 8.59288e-07, No Iterations 5
DICPCG:  Solving for p, Initial residual = 1.76702e-06, Final residual = 6.34344e-07, No Iterations 1
time step continuity errors : sum local = 1.50241e-10, global = 7.76298e-12, cumulative = 1.91422e-09
ExecutionTime = 4.79 s  ClockTime = 5 s

Time = 99.4

Courant Number mean: 0.0810503 max: 0.501897
smoothSolver:  Solving for Ux, Initial residual = 2.81031e-05, Final residual = 9.65687e-08, No Iterations 1
smoothSolver:  Solving for Uy, Initial residual = 1.24653e-05, Final residual = 3.57047e-08, No Iterations 1
DICPCG:  Solving for p, Initial residual = 0.00137888, Final residual = 5.40397e-05, No Iterations 7
DICPCG:  Solving for p, Initial residual = 0.000307931, Final residual = 1.47282e-05, No Iterations 19
DICPCG:  Solving for p, Initial residual = 7.12687e-05, Final residual = 2.91751e-06, No Iterations 21
time step continuity errors : sum local = 6.91123e-10, global = -3.50512e-11, cumulative = 1.87917e-09
DICPCG:  Solving for p, Initial residual = 6.38243e-05, Final residual = 2.3227e-06, No Iterations 5
DICPCG:  Solving for p, Initial residual = 9.02235e-06, Final residual = 9.13229e-07, No Iterations 12
DICPCG:  Solving for p, Initial residual = 2.28957e-06, Final residual = 6.06774e-07, No Iterations 1
time step continuity errors : sum local = 1.43743e-10, global = -2.59053e-12, cumulative = 1.87658e-09
ExecutionTime = 4.8 s  ClockTime = 5 s

Time = 99.45

Courant Number mean: 0.0810503 max: 0.501897
smoothSolver:  Solving for Ux, Initial residual = 2.91406e-05, Final residual = 1.09812e-07, No Iterations 1
smoothSolver:  Solving for Uy, Initial residual = 1.30022e-05, Final residual = 4.0924e-08, No Iterations 1
DICPCG:  Solving for p, Initial residual = 0.00351596, Final residual = 0.000161316, No Iterations 6
DICPCG:  Solving for p, Initial residual = 0.000753943, Final residual = 3.34417e-05, No Iterations 11
DICPCG:  Solving for p, Initial residual = 0.000158864, Final residual = 5.00348e-06, No Iterations 46
time step continuity errors : sum local = 1.18632e-09, global = -8.54405e-11, cumulative = 1.79114e-09
DICPCG:  Solving for p, Initial residual = 0.000207143, Final residual = 8.00373e-06, No Iterations 5
DICPCG:  Solving for p, Initial residual = 3.20417e-05, Final residual = 1.54513e-06, No Iterations 10
DICPCG:  Solving for p, Initial residual = 7.57371e-06, Final residual = 9.3275e-07, No Iterations 12
time step continuity errors : sum local = 2.21338e-10, global = -9.28532e-12, cumulative = 1.78186e-09
ExecutionTime = 4.81 s  ClockTime = 5 s

Time = 99.5

Courant Number mean: 0.0810502 max: 0.501895
smoothSolver:  Solving for Ux, Initial residual = 2.99799e-05, Final residual = 1.26071e-07, No Iterations 1
smoothSolver:  Solving for Uy, Initial residual = 1.39193e-05, Final residual = 5.00351e-08, No Iterations 1
DICPCG:  Solving for p, Initial residual = 0.00144564, Final residual = 6.65064e-05, No Iterations 6
DICPCG:  Solving for p, Initial residual = 0.000325754, Final residual = 1.53019e-05, No Iterations 17
DICPCG:  Solving for p, Initial residual = 8.05636e-05, Final residual = 3.61835e-06, No Iterations 20
time step continuity errors : sum local = 8.58831e-10, global = -6.24814e-11, cumulative = 1.71938e-09
DICPCG:  Solving for p, Initial residual = 7.04912e-05, Final residual = 2.80437e-06, No Iterations 6
DICPCG:  Solving for p, Initial residual = 1.0702e-05, Final residual = 8.56015e-07, No Iterations 33
DICPCG:  Solving for p, Initial residual = 5.62696e-06, Final residual = 9.20167e-07, No Iterations 1
time step continuity errors : sum local = 2.18427e-10, global = -2.36337e-11, cumulative = 1.69574e-09
ExecutionTime = 4.82 s  ClockTime = 5 s

Time = 99.55

Courant Number mean: 0.0810502 max: 0.501894
smoothSolver:  Solving for Ux, Initial residual = 3.18991e-05, Final residual = 1.35426e-07, No Iterations 1
smoothSolver:  Solving for Uy, Initial residual = 1.36935e-05, Final residual = 4.5163e-08, No Iterations 1
DICPCG:  Solving for p, Initial residual = 0.00182322, Final residual = 7.21543e-05, No Iterations 7
DICPCG:  Solving for p, Initial residual = 0.000380691, Final residual = 1.49182e-05, No Iterations 16
DICPCG:  Solving for p, Initial residual = 7.49217e-05, Final residual = 3.59431e-06, No Iterations 20
time step continuity errors : sum local = 8.52379e-10, global = 1.31373e-10, cumulative = 1.82711e-09
DICPCG:  Solving for p, Initial residual = 8.7043e-05, Final residual = 3.49598e-06, No Iterations 7
DICPCG:  Solving for p, Initial residual = 1.53297e-05, Final residual = 8.51366e-07, No Iterations 48
DICPCG:  Solving for p, Initial residual = 9.18301e-06, Final residual = 8.01997e-07, No Iterations 2
time step continuity errors : sum local = 1.90173e-10, global = 4.30123e-12, cumulative = 1.83142e-09
ExecutionTime = 4.83 s  ClockTime = 5 s

Time = 99.6

Courant Number mean: 0.0810501 max: 0.501892
smoothSolver:  Solving for Ux, Initial residual = 3.42188e-05, Final residual = 1.40816e-07, No Iterations 1
smoothSolver:  Solving for Uy, Initial residual = 1.32359e-05, Final residual = 4.09748e-08, No Iterations 1
DICPCG:  Solving for p, Initial residual = 0.00174915, Final residual = 7.5509e-05, No Iterations 6
DICPCG:  Solving for p, Initial residual = 0.000336122, Final residual = 1.54805e-05, No Iterations 16
DICPCG:  Solving for p, Initial residual = 8.0647e-05, Final residual = 3.31678e-06, No Iterations 41
time step continuity errors : sum local = 7.86567e-10, global = -1.87203e-11, cumulative = 1.8127e-09
DICPCG:  Solving for p, Initial residual = 8.99519e-05, Final residual = 4.25348e-06, No Iterations 6
DICPCG:  Solving for p, Initial residual = 1.54029e-05, Final residual = 9.88579e-07, No Iterations 20
DICPCG:  Solving for p, Initial residual = 4.90849e-06, Final residual = 8.69331e-07, No Iterations 1
time step continuity errors : sum local = 2.06207e-10, global = 4.85094e-11, cumulative = 1.86121e-09
ExecutionTime = 4.84 s  ClockTime = 5 s

Time = 99.65

Courant Number mean: 0.08105 max: 0.501891
smoothSolver:  Solving for Ux, Initial residual = 3.25662e-05, Final residual = 1.21865e-07, No Iterations 1
smoothSolver:  Solving for Uy, Initial residual = 1.19601e-05, Final residual = 3.20292e-08, No Iterations 1
DICPCG:  Solving for p, Initial residual = 0.00123168, Final residual = 5.26082e-05, No Iterations 7
DICPCG:  Solving for p, Initial residual = 0.000268286, Final residual = 1.27519e-05, No Iterations 16
DICPCG:  Solving for p, Initial residual = 5.90977e-05, Final residual = 2.05348e-06, No Iterations 47
time step continuity errors : sum local = 4.86773e-10, global = -3.05029e-11, cumulative = 1.8307e-09
DICPCG:  Solving for p, Initial residual = 8.4429e-05, Final residual = 3.66109e-06, No Iterations 4
DICPCG:  Solving for p, Initial residual = 1.29226e-05, Final residual = 8.31316e-07, No Iterations 17
DICPCG:  Solving for p, Initial residual = 3.42136e-06, Final residual = 6.68825e-07, No Iterations 1
time step continuity errors : sum local = 1.58576e-10, global = 1.6235e-11, cumulative = 1.84694e-09
ExecutionTime = 4.85 s  ClockTime = 5 s

Time = 99.7

Courant Number mean: 0.0810499 max: 0.501889
smoothSolver:  Solving for Ux, Initial residual = 3.3567e-05, Final residual = 1.12088e-07, No Iterations 1
smoothSolver:  Solving for Uy, Initial residual = 1.18955e-05, Final residual = 3.22139e-08, No Iterations 1
DICPCG:  Solving for p, Initial residual = 0.0016591, Final residual = 7.15301e-05, No Iterations 6
DICPCG:  Solving for p, Initial residual = 0.000337265, Final residual = 1.55404e-05, No Iterations 18
DICPCG:  Solving for p, Initial residual = 7.97686e-05, Final residual = 3.70707e-06, No Iterations 20
time step continuity errors : sum local = 8.78651e-10, global = -9.06212e-11, cumulative = 1.75632e-09
DICPCG:  Solving for p, Initial residual = 9.19523e-05, Final residual = 3.26637e-06, No Iterations 4
DICPCG:  Solving for p, Initial residual = 1.32446e-05, Final residual = 8.58606e-07, No Iterations 38
DICPCG:  Solving for p, Initial residual = 5.52337e-06, Final residual = 9.66035e-07, No Iterations 1
time step continuity errors : sum local = 2.28997e-10, global = 1.11535e-11, cumulative = 1.76747e-09
ExecutionTime = 4.86 s  ClockTime = 5 s

Time = 99.75

Courant Number mean: 0.0810499 max: 0.501888
smoothSolver:  Solving for Ux, Initial residual = 3.371e-05, Final residual = 1.00461e-07, No Iterations 1
smoothSolver:  Solving for Uy, Initial residual = 1.26134e-05, Final residual = 3.54548e-08, No Iterations 1
DICPCG:  Solving for p, Initial residual = 0.00166313, Final residual = 7.29492e-05, No Iterations 6
DICPCG:  Solving for p, Initial residual = 0.000335411, Final residual = 1.47644e-05, No Iterations 20
DICPCG:  Solving for p, Initial residual = 7.62608e-05, Final residual = 3.64887e-06, No Iterations 18
time step continuity errors : sum local = 8.64269e-10, global = -6.24865e-12, cumulative = 1.76122e-09
DICPCG:  Solving for p, Initial residual = 9.36189e-05, Final residual = 3.85311e-06, No Iterations 5
DICPCG:  Solving for p, Initial residual = 1.48921e-05, Final residual = 9.85932e-07, No Iterations 11
DICPCG:  Solving for p, Initial residual = 3.05086e-06, Final residual = 6.91079e-07, No Iterations 1
time step continuity errors : sum local = 1.63686e-10, global = -4.67447e-11, cumulative = 1.71448e-09
ExecutionTime = 4.87 s  ClockTime = 5 s

Time = 99.8

Courant Number mean: 0.0810498 max: 0.501886
smoothSolver:  Solving for Ux, Initial residual = 3.30502e-05, Final residual = 9.40917e-08, No Iterations 1
smoothSolver:  Solving for Uy, Initial residual = 1.28681e-05, Final residual = 3.89932e-08, No Iterations 1
DICPCG:  Solving for p, Initial residual = 0.00163936, Final residual = 6.65391e-05, No Iterations 6
DICPCG:  Solving for p, Initial residual = 0.000312939, Final residual = 1.25568e-05, No Iterations 18
DICPCG:  Solving for p, Initial residual = 7.34341e-05, Final residual = 3.30969e-06, No Iterations 20
time step continuity errors : sum local = 7.83499e-10, global = 3.53327e-11, cumulative = 1.74981e-09
DICPCG:  Solving for p, Initial residual = 8.21922e-05, Final residual = 3.70789e-06, No Iterations 4
DICPCG:  Solving for p, Initial residual = 1.28403e-05, Final residual = 9.10415e-07, No Iterations 9
DICPCG:  Solving for p, Initial residual = 2.88507e-06, Final residual = 6.34625e-07, No Iterations 1
time step continuity errors : sum local = 1.50239e-10, global = 1.19069e-11, cumulative = 1.76172e-09
ExecutionTime = 4.88 s  ClockTime = 5 s

Time = 99.85

Courant Number mean: 0.0810498 max: 0.501886
smoothSolver:  Solving for Ux, Initial residual = 3.28525e-05, Final residual = 9.789e-08, No Iterations 1
smoothSolver:  Solving for Uy, Initial residual = 1.30219e-05, Final residual = 3.99804e-08, No Iterations 1
DICPCG:  Solving for p, Initial residual = 0.00138174, Final residual = 6.34269e-05, No Iterations 6
DICPCG:  Solving for p, Initial residual = 0.000290865, Final residual = 1.42675e-05, No Iterations 18
DICPCG:  Solving for p, Initial residual = 7.55619e-05, Final residual = 3.59793e-06, No Iterations 47
time step continuity errors : sum local = 8.51268e-10, global = 6.25439e-11, cumulative = 1.82426e-09
DICPCG:  Solving for p, Initial residual = 8.5829e-05, Final residual = 4.23734e-06, No Iterations 5
DICPCG:  Solving for p, Initial residual = 1.39271e-05, Final residual = 8.09957e-07, No Iterations 21
DICPCG:  Solving for p, Initial residual = 4.48986e-06, Final residual = 8.03015e-07, No Iterations 1
time step continuity errors : sum local = 1.89955e-10, global = -2.15024e-11, cumulative = 1.80276e-09
ExecutionTime = 4.89 s  ClockTime = 5 s

Time = 99.9

Courant Number mean: 0.0810497 max: 0.501884
smoothSolver:  Solving for Ux, Initial residual = 3.30324e-05, Final residual = 1.01731e-07, No Iterations 1
smoothSolver:  Solving for Uy, Initial residual = 1.29816e-05, Final residual = 4.17153e-08, No Iterations 1
DICPCG:  Solving for p, Initial residual = 0.00113141, Final residual = 4.24541e-05, No Iterations 6
DICPCG:  Solving for p, Initial residual = 0.000194615, Final residual = 8.88279e-06, No Iterations 18
DICPCG:  Solving for p, Initial residual = 4.54044e-05, Final residual = 2.25888e-06, No Iterations 45
time step continuity errors : sum local = 5.34183e-10, global = -3.25943e-12, cumulative = 1.7995e-09
DICPCG:  Solving for p, Initial residual = 6.29865e-05, Final residual = 2.94675e-06, No Iterations 4
DICPCG:  Solving for p, Initial residual = 9.57622e-06, Final residual = 9.26676e-07, No Iterations 14
DICPCG:  Solving for p, Initial residual = 3.26881e-06, Final residual = 7.0017e-07, No Iterations 1
time step continuity errors : sum local = 1.6556e-10, global = -1.60368e-11, cumulative = 1.78346e-09
ExecutionTime = 4.89 s  ClockTime = 5 s

Time = 99.95

Courant Number mean: 0.0810497 max: 0.501883
smoothSolver:  Solving for Ux, Initial residual = 3.25547e-05, Final residual = 1.01745e-07, No Iterations 1
smoothSolver:  Solving for Uy, Initial residual = 1.27188e-05, Final residual = 4.15038e-08, No Iterations 1
DICPCG:  Solving for p, Initial residual = 0.00124833, Final residual = 5.7606e-05, No Iterations 4
DICPCG:  Solving for p, Initial residual = 0.000177749, Final residual = 8.80963e-06, No Iterations 14
DICPCG:  Solving for p, Initial residual = 4.07698e-05, Final residual = 1.88515e-06, No Iterations 20
time step continuity errors : sum local = 4.45896e-10, global = 3.93015e-11, cumulative = 1.82276e-09
DICPCG:  Solving for p, Initial residual = 6.76942e-05, Final residual = 2.93917e-06, No Iterations 3
DICPCG:  Solving for p, Initial residual = 9.86799e-06, Final residual = 8.91992e-07, No Iterations 7
DICPCG:  Solving for p, Initial residual = 2.53781e-06, Final residual = 7.01073e-07, No Iterations 1
time step continuity errors : sum local = 1.65819e-10, global = 8.66093e-12, cumulative = 1.83142e-09
ExecutionTime = 4.9 s  ClockTime = 5 s

Time = 100

Courant Number mean: 0.0810496 max: 0.501881
smoothSolver:  Solving for Ux, Initial residual = 3.44158e-05, Final residual = 1.00519e-07, No Iterations 1
smoothSolver:  Solving for Uy, Initial residual = 1.30324e-05, Final residual = 4.1988e-08, No Iterations 1
DICPCG:  Solving for p, Initial residual = 0.00345663, Final residual = 0.000137839, No Iterations 6
DICPCG:  Solving for p, Initial residual = 0.000564298, Final residual = 2.68429e-05, No Iterations 13
DICPCG:  Solving for p, Initial residual = 0.000133813, Final residual = 5.78046e-06, No Iterations 47
time step continuity errors : sum local = 1.37022e-09, global = -4.20702e-11, cumulative = 1.78935e-09
DICPCG:  Solving for p, Initial residual = 0.000243158, Final residual = 9.94579e-06, No Iterations 4
DICPCG:  Solving for p, Initial residual = 3.7772e-05, Final residual = 1.86003e-06, No Iterations 15
DICPCG:  Solving for p, Initial residual = 1.1402e-05, Final residual = 8.01198e-07, No Iterations 18
time step continuity errors : sum local = 1.89997e-10, global = 3.20278e-11, cumulative = 1.82138e-09
ExecutionTime = 4.92 s  ClockTime = 5 s

End

